/*---------------------------------------------------------------------------*\
| =========                 |                                                 |
| \\      /  F ield         | OpenFOAM: The Open Source CFD Toolbox           |
|  \\    /   O peration     | Version:  v2012                                 |
|   \\  /    A nd           | Website:  www.openfoam.com                      |
|    \\/     M anipulation  |                                                 |
\*---------------------------------------------------------------------------*/
Build  : v2012 OPENFOAM=2012
Arch   : "LSB;label=32;scalar=64"
Exec   : hisa -case results_ensemble/sample_2/case2
Date   : Dec 03 2024
Time   : 12:13:35
Host   : chen-virtual-machine
PID    : 74691
I/O    : uncollated
Case   : /home/chen/DAFI/ensemble-learning/test_cases/traincase/compression_ramp_2caseVaMa_PrtAndBeta_withoutTheta/results_ensemble/sample_2/case2
nProcs : 1
trapFpe: Floating point exception trapping enabled (FOAM_SIGFPE).
fileModificationChecking : Monitoring run-time modified files using timeStampMaster (fileModificationSkew 5, maxFileModificationPolls 20)
allowSystemOperations : Allowing user-supplied system call operations

// * * * * * * * * * * * * * * * * * * * * * * * * * * * * * * * * * * * * * //
Create time

Create mesh for time = 13000, region region0
Creating static mesh

Steady-state analysis detected

pseudoTime: tolerance = 1e-08 (1e-08 1e-08 1e-08) 1e-08 , relTol = 0 (0 0 0) 0 

Local timestepping selected

Reading thermophysical properties

Selecting thermodynamics package 
{
    type            hePsiThermo;
    mixture         pureMixture;
    transport       sutherland;
    thermo          hConst;
    equationOfState perfectGas;
    specie          specie;
    energy          sensibleInternalEnergy;
}


Viscous analysis detected

Reading field U

Creating turbulence model

Selecting turbulence model type RAS
Selecting RAS turbulence model kOmegaSST
Selecting patchDistMethod meshWave
RAS
{
    RASModel        kOmegaSST;
    turbulence      on;
    betannmodel     0;
    Main            9;
    betascalar      1;
    begin           0.1;
    printCoeffs     on;
    alphaK1         0.85;
    alphaK2         1;
    alphaOmega1     0.5;
    alphaOmega2     0.856;
    gamma1          0.555556;
    gamma2          0.44;
    beta1           0.075;
    beta2           0.0828;
    betaStar        0.09;
    a1              0.31;
    b1              1;
    c1              10;
    F3              false;
    cor             1;
    end             1;
    sca             1;
    height1         0;
    height2         0.1;
    ybegin          0.1;
    decayControl    false;
    kInf            0;
    omegaInf        0;
}


Creating flux scheme

Selecting flux scheme AUSMPlusUp

No finite volume options present
Initial pseudo Courant No: Min: 1 Mean: 1 Max: 1


Starting pseudotime iteration loop

Time = 13000

pseudoTime: iteration 131501
Pseudo Courant No: 1
Damped pseudo Courant No: Min: 1 Mean: 1 Max: 1
Pseudo deltaT: Min: 7.73109e-09 Mean: 6.02015e-07 Max: 6.81111e-06
Solving for (rho rhoU rhoE)
  GMRES iteration: 0   Residual: 1.96167e-06 (1.8802e-06 1.12554e-06 4.42829e-19) 2.30506e-06 
  GMRES iteration: 1   Residual: 6.00833e-09 (2.15859e-09 1.60165e-09 0) 5.40243e-09 
smoothSolver:  Solving for omega, Initial residual = 1.93714e-05, Final residual = 1.16846e-08, No Iterations 1
smoothSolver:  Solving for k, Initial residual = 1.37877e-06, Final residual = 5.65282e-09, No Iterations 1
ExecutionTime = 1.99 s  ExecutionStepTime = 1.17 s  ClockTime = 2 s

Time = 13001

pseudoTime: iteration 131502
Pseudo Courant No: 1
Damped pseudo Courant No: Min: 1 Mean: 1 Max: 1
Pseudo deltaT: Min: 7.7311e-09 Mean: 6.02015e-07 Max: 6.81111e-06
Solving for (rho rhoU rhoE)
  GMRES iteration: 0   Residual: 1.89002e-06 (1.77374e-06 1.05057e-06 4.4283e-19) 2.25692e-06 
  GMRES iteration: 1   Residual: 6.07424e-09 (2.23991e-09 1.64038e-09 0) 5.58165e-09 
smoothSolver:  Solving for omega, Initial residual = 5.61656e-06, Final residual = 4.29936e-09, No Iterations 1
smoothSolver:  Solving for k, Initial residual = 1.37919e-06, Final residual = 5.64475e-09, No Iterations 1
ExecutionTime = 3.06 s  ExecutionStepTime = 1.07 s  ClockTime = 3 s

Time = 13001

pseudoTime: iteration 131503
Pseudo Courant No: 1
Damped pseudo Courant No: Min: 1 Mean: 1 Max: 1
Pseudo deltaT: Min: 7.7311e-09 Mean: 6.02015e-07 Max: 6.81111e-06
Solving for (rho rhoU rhoE)
  GMRES iteration: 0   Residual: 1.93574e-06 (1.77962e-06 1.06319e-06 4.42832e-19) 2.25177e-06 
  GMRES iteration: 1   Residual: 6.00124e-09 (2.15922e-09 1.60994e-09 0) 5.42469e-09 
smoothSolver:  Solving for omega, Initial residual = 2.45435e-06, Final residual = 2.02274e-09, No Iterations 1
smoothSolver:  Solving for k, Initial residual = 1.3757e-06, Final residual = 5.64519e-09, No Iterations 1
ExecutionTime = 4.12 s  ExecutionStepTime = 1.06 s  ClockTime = 4 s

Time = 13001

pseudoTime: iteration 131504
Pseudo Courant No: 1
Damped pseudo Courant No: Min: 1 Mean: 1 Max: 1
Pseudo deltaT: Min: 7.7311e-09 Mean: 6.02015e-07 Max: 6.81111e-06
Solving for (rho rhoU rhoE)
  GMRES iteration: 0   Residual: 1.90796e-06 (1.75905e-06 1.03429e-06 4.42832e-19) 2.1229e-06 
  GMRES iteration: 1   Residual: 5.91591e-09 (2.12746e-09 1.6104e-09 0) 5.34207e-09 
smoothSolver:  Solving for omega, Initial residual = 1.42898e-06, Final residual = 1.20518e-09, No Iterations 1
smoothSolver:  Solving for k, Initial residual = 1.37633e-06, Final residual = 5.64031e-09, No Iterations 1
ExecutionTime = 5.19 s  ExecutionStepTime = 1.07 s  ClockTime = 5 s

Time = 13002

pseudoTime: iteration 131505
Pseudo Courant No: 1
Damped pseudo Courant No: Min: 1 Mean: 1 Max: 1
Pseudo deltaT: Min: 7.7311e-09 Mean: 6.02015e-07 Max: 6.81111e-06
Solving for (rho rhoU rhoE)
  GMRES iteration: 0   Residual: 1.91793e-06 (1.75456e-06 1.03277e-06 4.42832e-19) 2.12683e-06 
  GMRES iteration: 1   Residual: 5.87387e-09 (2.10546e-09 1.61826e-09 0) 5.27962e-09 
smoothSolver:  Solving for omega, Initial residual = 9.98567e-07, Final residual = 8.53179e-10, No Iterations 1
smoothSolver:  Solving for k, Initial residual = 1.37328e-06, Final residual = 5.64299e-09, No Iterations 1
ExecutionTime = 6.3 s  ExecutionStepTime = 1.11 s  ClockTime = 6 s

Time = 13002

pseudoTime: iteration 131506
Pseudo Courant No: 1
Damped pseudo Courant No: Min: 1 Mean: 1 Max: 1
Pseudo deltaT: Min: 7.7311e-09 Mean: 6.02015e-07 Max: 6.81111e-06
Solving for (rho rhoU rhoE)
  GMRES iteration: 0   Residual: 1.89935e-06 (1.74316e-06 1.02359e-06 4.42832e-19) 2.12964e-06 
  GMRES iteration: 1   Residual: 5.9415e-09 (2.11994e-09 1.62726e-09 0) 5.37911e-09 
smoothSolver:  Solving for omega, Initial residual = 7.74923e-07, Final residual = 6.6784e-10, No Iterations 1
smoothSolver:  Solving for k, Initial residual = 1.37431e-06, Final residual = 5.63901e-09, No Iterations 1
ExecutionTime = 7.44 s  ExecutionStepTime = 1.14 s  ClockTime = 7 s

Time = 13002

pseudoTime: iteration 131507
Pseudo Courant No: 1
Damped pseudo Courant No: Min: 1 Mean: 1 Max: 1
Pseudo deltaT: Min: 7.7311e-09 Mean: 6.02015e-07 Max: 6.81111e-06
Solving for (rho rhoU rhoE)
  GMRES iteration: 0   Residual: 1.88265e-06 (1.74435e-06 1.03472e-06 4.42832e-19) 2.10822e-06 
  GMRES iteration: 1   Residual: 5.77748e-09 (2.11569e-09 1.68489e-09 0) 5.23923e-09 
smoothSolver:  Solving for omega, Initial residual = 6.41746e-07, Final residual = 5.53834e-10, No Iterations 1
smoothSolver:  Solving for k, Initial residual = 1.37154e-06, Final residual = 5.64205e-09, No Iterations 1
ExecutionTime = 8.56 s  ExecutionStepTime = 1.12 s  ClockTime = 8 s

Time = 13003

pseudoTime: iteration 131508
Pseudo Courant No: 1
Damped pseudo Courant No: Min: 1 Mean: 1 Max: 1
Pseudo deltaT: Min: 7.7311e-09 Mean: 6.02015e-07 Max: 6.81111e-06
Solving for (rho rhoU rhoE)
  GMRES iteration: 0   Residual: 1.88886e-06 (1.74044e-06 1.02855e-06 4.42833e-19) 2.09911e-06 
  GMRES iteration: 1   Residual: 5.88389e-09 (2.1271e-09 1.66173e-09 0) 5.34463e-09 
smoothSolver:  Solving for omega, Initial residual = 5.52248e-07, Final residual = 4.74649e-10, No Iterations 1
smoothSolver:  Solving for k, Initial residual = 1.37256e-06, Final residual = 5.6383e-09, No Iterations 1
ExecutionTime = 9.65 s  ExecutionStepTime = 1.09 s  ClockTime = 9 s

Time = 13003

pseudoTime: iteration 131509
Pseudo Courant No: 1
Damped pseudo Courant No: Min: 1 Mean: 1 Max: 1
Pseudo deltaT: Min: 7.7311e-09 Mean: 6.02015e-07 Max: 6.81111e-06
Solving for (rho rhoU rhoE)
  GMRES iteration: 0   Residual: 1.94217e-06 (1.76486e-06 1.04618e-06 4.42833e-19) 2.3148e-06 
  GMRES iteration: 1   Residual: 6.05373e-09 (2.13791e-09 1.6383e-09 0) 5.45442e-09 
smoothSolver:  Solving for omega, Initial residual = 4.90319e-07, Final residual = 4.16718e-10, No Iterations 1
smoothSolver:  Solving for k, Initial residual = 1.36981e-06, Final residual = 5.64139e-09, No Iterations 1
ExecutionTime = 10.73 s  ExecutionStepTime = 1.08 s  ClockTime = 10 s

Time = 13003

pseudoTime: iteration 131510
Pseudo Courant No: 1
Damped pseudo Courant No: Min: 1 Mean: 1 Max: 1
Pseudo deltaT: Min: 7.7311e-09 Mean: 6.02015e-07 Max: 6.81111e-06
Solving for (rho rhoU rhoE)
  GMRES iteration: 0   Residual: 1.92096e-06 (1.75327e-06 1.04724e-06 4.42833e-19) 2.14009e-06 
  GMRES iteration: 1   Residual: 5.84038e-09 (2.12995e-09 1.68808e-09 0) 5.30554e-09 
smoothSolver:  Solving for omega, Initial residual = 4.41174e-07, Final residual = 3.71474e-10, No Iterations 1
smoothSolver:  Solving for k, Initial residual = 1.37075e-06, Final residual = 5.63762e-09, No Iterations 1
ExecutionTime = 11.87 s  ExecutionStepTime = 1.14 s  ClockTime = 12 s

Time = 13004

pseudoTime: iteration 131511
Pseudo Courant No: 1
Damped pseudo Courant No: Min: 1 Mean: 1 Max: 1
Pseudo deltaT: Min: 7.7311e-09 Mean: 6.02015e-07 Max: 6.81111e-06
Solving for (rho rhoU rhoE)
  GMRES iteration: 0   Residual: 1.89214e-06 (1.73792e-06 1.03401e-06 4.42833e-19) 2.12262e-06 
  GMRES iteration: 1   Residual: 5.8325e-09 (2.15595e-09 1.72913e-09 0) 5.31866e-09 
smoothSolver:  Solving for omega, Initial residual = 4.03696e-07, Final residual = 3.36152e-10, No Iterations 1
smoothSolver:  Solving for k, Initial residual = 1.36781e-06, Final residual = 5.64066e-09, No Iterations 1
ExecutionTime = 12.97 s  ExecutionStepTime = 1.1 s  ClockTime = 13 s

Time = 13004

pseudoTime: iteration 131512
Pseudo Courant No: 1
Damped pseudo Courant No: Min: 1 Mean: 1 Max: 1
Pseudo deltaT: Min: 7.7311e-09 Mean: 6.02015e-07 Max: 6.81111e-06
Solving for (rho rhoU rhoE)
  GMRES iteration: 0   Residual: 1.91451e-06 (1.74242e-06 1.0283e-06 4.42833e-19) 2.19241e-06 
  GMRES iteration: 1   Residual: 5.99887e-09 (2.17624e-09 1.70989e-09 0) 5.45915e-09 
smoothSolver:  Solving for omega, Initial residual = 3.73644e-07, Final residual = 3.06971e-10, No Iterations 1
smoothSolver:  Solving for k, Initial residual = 1.36892e-06, Final residual = 5.63658e-09, No Iterations 1
ExecutionTime = 14.09 s  ExecutionStepTime = 1.11 s  ClockTime = 14 s

Time = 13004

pseudoTime: iteration 131513
Pseudo Courant No: 1
Damped pseudo Courant No: Min: 1 Mean: 1 Max: 1
Pseudo deltaT: Min: 7.7311e-09 Mean: 6.02015e-07 Max: 6.81111e-06
Solving for (rho rhoU rhoE)
  GMRES iteration: 0   Residual: 1.91174e-06 (1.74403e-06 1.03522e-06 4.42833e-19) 2.13039e-06 
  GMRES iteration: 1   Residual: 5.91945e-09 (2.15631e-09 1.72498e-09 0) 5.3666e-09 
smoothSolver:  Solving for omega, Initial residual = 3.50364e-07, Final residual = 2.83438e-10, No Iterations 1
smoothSolver:  Solving for k, Initial residual = 1.36585e-06, Final residual = 5.63919e-09, No Iterations 1
ExecutionTime = 15.22 s  ExecutionStepTime = 1.13 s  ClockTime = 15 s

Time = 13005

pseudoTime: iteration 131514
Pseudo Courant No: 1
Damped pseudo Courant No: Min: 1 Mean: 1 Max: 1
Pseudo deltaT: Min: 7.7311e-09 Mean: 6.02015e-07 Max: 6.81111e-06
Solving for (rho rhoU rhoE)
  GMRES iteration: 0   Residual: 1.88761e-06 (1.73135e-06 1.02452e-06 4.42833e-19) 2.09466e-06 
  GMRES iteration: 1   Residual: 6.05891e-09 (2.22902e-09 1.74178e-09 0) 5.56216e-09 
smoothSolver:  Solving for omega, Initial residual = 3.28883e-07, Final residual = 2.63182e-10, No Iterations 1
smoothSolver:  Solving for k, Initial residual = 1.36676e-06, Final residual = 5.63446e-09, No Iterations 1
ExecutionTime = 16.34 s  ExecutionStepTime = 1.12 s  ClockTime = 16 s

Time = 13005

pseudoTime: iteration 131515
Pseudo Courant No: 1
Damped pseudo Courant No: Min: 1 Mean: 1 Max: 1
Pseudo deltaT: Min: 7.7311e-09 Mean: 6.02015e-07 Max: 6.81111e-06
Solving for (rho rhoU rhoE)
  GMRES iteration: 0   Residual: 1.92586e-06 (1.75456e-06 1.04831e-06 4.42833e-19) 2.23434e-06 
  GMRES iteration: 1   Residual: 6.10465e-09 (2.22897e-09 1.74875e-09 0) 5.57277e-09 
smoothSolver:  Solving for omega, Initial residual = 3.12715e-07, Final residual = 2.46614e-10, No Iterations 1
smoothSolver:  Solving for k, Initial residual = 1.36384e-06, Final residual = 5.63662e-09, No Iterations 1
ExecutionTime = 17.4 s  ExecutionStepTime = 1.06 s  ClockTime = 17 s

Time = 13005

pseudoTime: iteration 131516
Pseudo Courant No: 1
Damped pseudo Courant No: Min: 1 Mean: 1 Max: 1
Pseudo deltaT: Min: 7.7311e-09 Mean: 6.02015e-07 Max: 6.81111e-06
Solving for (rho rhoU rhoE)
  GMRES iteration: 0   Residual: 1.91095e-06 (1.74544e-06 1.03598e-06 4.42834e-19) 2.26834e-06 
  GMRES iteration: 1   Residual: 6.16761e-09 (2.27831e-09 1.79523e-09 0) 5.68288e-09 
smoothSolver:  Solving for omega, Initial residual = 2.96911e-07, Final residual = 2.31809e-10, No Iterations 1
smoothSolver:  Solving for k, Initial residual = 1.36471e-06, Final residual = 5.63137e-09, No Iterations 1
ExecutionTime = 18.58 s  ExecutionStepTime = 1.18 s  ClockTime = 18 s

Time = 13006

pseudoTime: iteration 131517
Pseudo Courant No: 1
Damped pseudo Courant No: Min: 1 Mean: 1 Max: 1
Pseudo deltaT: Min: 7.7311e-09 Mean: 6.02015e-07 Max: 6.81111e-06
Solving for (rho rhoU rhoE)
  GMRES iteration: 0   Residual: 1.92981e-06 (1.75118e-06 1.04715e-06 4.42834e-19) 2.16181e-06 
  GMRES iteration: 1   Residual: 6.05215e-09 (2.21126e-09 1.76352e-09 0) 5.50444e-09 
smoothSolver:  Solving for omega, Initial residual = 2.84575e-07, Final residual = 2.19568e-10, No Iterations 1
smoothSolver:  Solving for k, Initial residual = 1.3617e-06, Final residual = 5.63322e-09, No Iterations 1
ExecutionTime = 19.66 s  ExecutionStepTime = 1.08 s  ClockTime = 19 s

Time = 13006

pseudoTime: iteration 131518
Pseudo Courant No: 1
Damped pseudo Courant No: Min: 1 Mean: 1 Max: 1
Pseudo deltaT: Min: 7.7311e-09 Mean: 6.02015e-07 Max: 6.81111e-06
Solving for (rho rhoU rhoE)
  GMRES iteration: 0   Residual: 1.91065e-06 (1.73647e-06 1.02583e-06 4.42834e-19) 2.17001e-06 
  GMRES iteration: 1   Residual: 6.17507e-09 (2.24468e-09 1.79203e-09 0) 5.64531e-09 
smoothSolver:  Solving for omega, Initial residual = 2.7219e-07, Final residual = 2.08302e-10, No Iterations 1
smoothSolver:  Solving for k, Initial residual = 1.36271e-06, Final residual = 5.6275e-09, No Iterations 1
ExecutionTime = 20.65 s  ExecutionStepTime = 0.99 s  ClockTime = 20 s

Time = 13006

pseudoTime: iteration 131519
Pseudo Courant No: 1
Damped pseudo Courant No: Min: 1 Mean: 1 Max: 1
Pseudo deltaT: Min: 7.7311e-09 Mean: 6.02015e-07 Max: 6.81111e-06
Solving for (rho rhoU rhoE)
  GMRES iteration: 0   Residual: 1.89746e-06 (1.73343e-06 1.03604e-06 4.42834e-19) 2.15323e-06 
  GMRES iteration: 1   Residual: 6.04903e-09 (2.24689e-09 1.85085e-09 0) 5.52831e-09 
smoothSolver:  Solving for omega, Initial residual = 2.62879e-07, Final residual = 1.98985e-10, No Iterations 1
smoothSolver:  Solving for k, Initial residual = 1.35981e-06, Final residual = 5.62911e-09, No Iterations 1
ExecutionTime = 21.37 s  ExecutionStepTime = 0.72 s  ClockTime = 21 s

Time = 13007

pseudoTime: iteration 131520
Pseudo Courant No: 1
Damped pseudo Courant No: Min: 1 Mean: 1 Max: 1
Pseudo deltaT: Min: 7.7311e-09 Mean: 6.02015e-07 Max: 6.81111e-06
Solving for (rho rhoU rhoE)
  GMRES iteration: 0   Residual: 1.87668e-06 (1.72071e-06 1.01736e-06 4.42834e-19) 2.11765e-06 
  GMRES iteration: 1   Residual: 6.16006e-09 (2.25242e-09 1.84281e-09 0) 5.63481e-09 
smoothSolver:  Solving for omega, Initial residual = 2.53299e-07, Final residual = 1.90168e-10, No Iterations 1
smoothSolver:  Solving for k, Initial residual = 1.36074e-06, Final residual = 5.62302e-09, No Iterations 1
ExecutionTime = 22.39 s  ExecutionStepTime = 1.02 s  ClockTime = 22 s

Time = 13007

pseudoTime: iteration 131521
Pseudo Courant No: 1
Damped pseudo Courant No: Min: 1 Mean: 1 Max: 1
Pseudo deltaT: Min: 7.7311e-09 Mean: 6.02015e-07 Max: 6.81111e-06
Solving for (rho rhoU rhoE)
  GMRES iteration: 0   Residual: 1.91997e-06 (1.74272e-06 1.03833e-06 4.42834e-19) 2.26528e-06 
  GMRES iteration: 1   Residual: 6.31036e-09 (2.26686e-09 1.82838e-09 0) 5.73295e-09 
smoothSolver:  Solving for omega, Initial residual = 2.46442e-07, Final residual = 1.82883e-10, No Iterations 1
smoothSolver:  Solving for k, Initial residual = 1.3578e-06, Final residual = 5.62428e-09, No Iterations 1
ExecutionTime = 23.5 s  ExecutionStepTime = 1.11 s  ClockTime = 23 s

Time = 13007

pseudoTime: iteration 131522
Pseudo Courant No: 1
Damped pseudo Courant No: Min: 1 Mean: 1 Max: 1
Pseudo deltaT: Min: 7.7311e-09 Mean: 6.02015e-07 Max: 6.81111e-06
Solving for (rho rhoU rhoE)
  GMRES iteration: 0   Residual: 1.91444e-06 (1.74174e-06 1.04191e-06 4.42834e-19) 2.15564e-06 
  GMRES iteration: 1   Residual: 6.22714e-09 (2.26115e-09 1.84421e-09 0) 5.6756e-09 
smoothSolver:  Solving for omega, Initial residual = 2.38389e-07, Final residual = 1.75745e-10, No Iterations 1
smoothSolver:  Solving for k, Initial residual = 1.35888e-06, Final residual = 5.61768e-09, No Iterations 1
ExecutionTime = 24.59 s  ExecutionStepTime = 1.09 s  ClockTime = 24 s

Time = 13008

pseudoTime: iteration 131523
Pseudo Courant No: 1
Damped pseudo Courant No: Min: 1 Mean: 1 Max: 1
Pseudo deltaT: Min: 7.7311e-09 Mean: 6.02015e-07 Max: 6.81111e-06
Solving for (rho rhoU rhoE)
  GMRES iteration: 0   Residual: 1.91423e-06 (1.74093e-06 1.03743e-06 4.42834e-19) 2.27377e-06 
  GMRES iteration: 1   Residual: 6.36596e-09 (2.27977e-09 1.84983e-09 0) 5.78951e-09 
smoothSolver:  Solving for omega, Initial residual = 2.32619e-07, Final residual = 1.69886e-10, No Iterations 1
smoothSolver:  Solving for k, Initial residual = 1.35624e-06, Final residual = 5.61843e-09, No Iterations 1
ExecutionTime = 25.68 s  ExecutionStepTime = 1.09 s  ClockTime = 25 s

Time = 13008

pseudoTime: iteration 131524
Pseudo Courant No: 1
Damped pseudo Courant No: Min: 1 Mean: 1 Max: 1
Pseudo deltaT: Min: 7.7311e-09 Mean: 6.02015e-07 Max: 6.81111e-06
Solving for (rho rhoU rhoE)
  GMRES iteration: 0   Residual: 1.92791e-06 (1.74295e-06 1.03852e-06 4.42834e-19) 2.2334e-06 
  GMRES iteration: 1   Residual: 6.35149e-09 (2.28298e-09 1.85906e-09 0) 5.78392e-09 
smoothSolver:  Solving for omega, Initial residual = 2.25782e-07, Final residual = 1.63974e-10, No Iterations 1
smoothSolver:  Solving for k, Initial residual = 1.35716e-06, Final residual = 5.61135e-09, No Iterations 1
ExecutionTime = 26.73 s  ExecutionStepTime = 1.05 s  ClockTime = 27 s

Time = 13008

pseudoTime: iteration 131525
Pseudo Courant No: 1
Damped pseudo Courant No: Min: 1 Mean: 1 Max: 1
Pseudo deltaT: Min: 7.7311e-09 Mean: 6.02015e-07 Max: 6.81111e-06
Solving for (rho rhoU rhoE)
  GMRES iteration: 0   Residual: 1.90938e-06 (1.74026e-06 1.04176e-06 4.42834e-19) 2.18569e-06 
  GMRES iteration: 1   Residual: 6.26893e-09 (2.26705e-09 1.8707e-09 0) 5.69141e-09 
smoothSolver:  Solving for omega, Initial residual = 2.20878e-07, Final residual = 1.59156e-10, No Iterations 1
smoothSolver:  Solving for k, Initial residual = 1.35445e-06, Final residual = 5.61205e-09, No Iterations 1
ExecutionTime = 27.81 s  ExecutionStepTime = 1.08 s  ClockTime = 28 s

Time = 13009

pseudoTime: iteration 131526
Pseudo Courant No: 1
Damped pseudo Courant No: Min: 1 Mean: 1 Max: 1
Pseudo deltaT: Min: 7.7311e-09 Mean: 6.02015e-07 Max: 6.81111e-06
Solving for (rho rhoU rhoE)
  GMRES iteration: 0   Residual: 1.90688e-06 (1.7343e-06 1.02697e-06 4.42835e-19) 2.17518e-06 
  GMRES iteration: 1   Residual: 6.35677e-09 (2.28355e-09 1.87904e-09 0) 5.78374e-09 
smoothSolver:  Solving for omega, Initial residual = 2.15211e-07, Final residual = 1.54212e-10, No Iterations 1
smoothSolver:  Solving for k, Initial residual = 1.35548e-06, Final residual = 5.60451e-09, No Iterations 1
ExecutionTime = 28.92 s  ExecutionStepTime = 1.11 s  ClockTime = 29 s

Time = 13009

pseudoTime: iteration 131527
Pseudo Courant No: 1
Damped pseudo Courant No: Min: 1 Mean: 1 Max: 1
Pseudo deltaT: Min: 7.7311e-09 Mean: 6.02015e-07 Max: 6.81111e-06
Solving for (rho rhoU rhoE)
  GMRES iteration: 0   Residual: 1.92372e-06 (1.74523e-06 1.03823e-06 4.42835e-19) 2.25354e-06 
  GMRES iteration: 1   Residual: 6.42523e-09 (2.30128e-09 1.89322e-09 0) 5.8371e-09 
smoothSolver:  Solving for omega, Initial residual = 2.11515e-07, Final residual = 1.50252e-10, No Iterations 1
smoothSolver:  Solving for k, Initial residual = 1.35271e-06, Final residual = 5.60475e-09, No Iterations 1
ExecutionTime = 30.02 s  ExecutionStepTime = 1.1 s  ClockTime = 30 s

Time = 13009

pseudoTime: iteration 131528
Pseudo Courant No: 1
Damped pseudo Courant No: Min: 1 Mean: 1 Max: 1
Pseudo deltaT: Min: 7.7311e-09 Mean: 6.02015e-07 Max: 6.81111e-06
Solving for (rho rhoU rhoE)
  GMRES iteration: 0   Residual: 1.9097e-06 (1.74489e-06 1.03352e-06 4.42835e-19) 2.18882e-06 
  GMRES iteration: 1   Residual: 6.40096e-09 (2.30182e-09 1.89339e-09 0) 5.83582e-09 
smoothSolver:  Solving for omega, Initial residual = 2.06816e-07, Final residual = 1.46046e-10, No Iterations 1
smoothSolver:  Solving for k, Initial residual = 1.35358e-06, Final residual = 5.5965e-09, No Iterations 1
ExecutionTime = 31.11 s  ExecutionStepTime = 1.09 s  ClockTime = 31 s

Time = 13010

pseudoTime: iteration 131529
Pseudo Courant No: 1
Damped pseudo Courant No: Min: 1 Mean: 1 Max: 1
Pseudo deltaT: Min: 7.7311e-09 Mean: 6.02015e-07 Max: 6.81111e-06
Solving for (rho rhoU rhoE)
  GMRES iteration: 0   Residual: 1.93826e-06 (1.75842e-06 1.04296e-06 4.42835e-19) 2.20719e-06 
  GMRES iteration: 1   Residual: 6.41631e-09 (2.27332e-09 1.86791e-09 0) 5.78989e-09 
smoothSolver:  Solving for omega, Initial residual = 2.03939e-07, Final residual = 1.42734e-10, No Iterations 1
smoothSolver:  Solving for k, Initial residual = 1.35095e-06, Final residual = 5.59648e-09, No Iterations 1
ExecutionTime = 32.21 s  ExecutionStepTime = 1.1 s  ClockTime = 32 s

Time = 13010

pseudoTime: iteration 131530
Pseudo Courant No: 1
Damped pseudo Courant No: Min: 1 Mean: 1 Max: 1
Pseudo deltaT: Min: 7.7311e-09 Mean: 6.02015e-07 Max: 6.81111e-06
Solving for (rho rhoU rhoE)
  GMRES iteration: 0   Residual: 1.92622e-06 (1.74905e-06 1.02831e-06 4.42835e-19) 2.3672e-06 
  GMRES iteration: 1   Residual: 6.61134e-09 (2.35601e-09 1.90989e-09 0) 6.04149e-09 
smoothSolver:  Solving for omega, Initial residual = 1.99174e-07, Final residual = 1.39067e-10, No Iterations 1
smoothSolver:  Solving for k, Initial residual = 1.35185e-06, Final residual = 5.58795e-09, No Iterations 1
ExecutionTime = 33.32 s  ExecutionStepTime = 1.11 s  ClockTime = 33 s

Time = 13010

pseudoTime: iteration 131531
Pseudo Courant No: 1
Damped pseudo Courant No: Min: 1 Mean: 1 Max: 1
Pseudo deltaT: Min: 7.7311e-09 Mean: 6.02015e-07 Max: 6.81111e-06
Solving for (rho rhoU rhoE)
  GMRES iteration: 0   Residual: 1.93889e-06 (1.76487e-06 1.05278e-06 4.42835e-19) 2.23505e-06 
  GMRES iteration: 1   Residual: 6.32973e-09 (2.29427e-09 1.90662e-09 0) 5.73776e-09 
smoothSolver:  Solving for omega, Initial residual = 1.9672e-07, Final residual = 1.36245e-10, No Iterations 1
smoothSolver:  Solving for k, Initial residual = 1.34929e-06, Final residual = 5.58773e-09, No Iterations 1
ExecutionTime = 34.4 s  ExecutionStepTime = 1.08 s  ClockTime = 34 s

Time = 13011

pseudoTime: iteration 131532
Pseudo Courant No: 1
Damped pseudo Courant No: Min: 1 Mean: 1 Max: 1
Pseudo deltaT: Min: 7.7311e-09 Mean: 6.02015e-07 Max: 6.81111e-06
Solving for (rho rhoU rhoE)
  GMRES iteration: 0   Residual: 1.90969e-06 (1.74711e-06 1.0244e-06 4.42835e-19) 2.21393e-06 
  GMRES iteration: 1   Residual: 6.44434e-09 (2.30446e-09 1.89948e-09 0) 5.8597e-09 
smoothSolver:  Solving for omega, Initial residual = 1.92465e-07, Final residual = 1.33055e-10, No Iterations 1
smoothSolver:  Solving for k, Initial residual = 1.35016e-06, Final residual = 5.57872e-09, No Iterations 1
ExecutionTime = 35.49 s  ExecutionStepTime = 1.09 s  ClockTime = 35 s

Time = 13011

pseudoTime: iteration 131533
Pseudo Courant No: 1
Damped pseudo Courant No: Min: 1 Mean: 1 Max: 1
Pseudo deltaT: Min: 7.7311e-09 Mean: 6.02015e-07 Max: 6.81111e-06
Solving for (rho rhoU rhoE)
  GMRES iteration: 0   Residual: 1.94648e-06 (1.76314e-06 1.04235e-06 4.42835e-19) 2.32653e-06 
  GMRES iteration: 1   Residual: 6.52929e-09 (2.29778e-09 1.8756e-09 0) 5.88736e-09 
smoothSolver:  Solving for omega, Initial residual = 1.90518e-07, Final residual = 1.30669e-10, No Iterations 1
smoothSolver:  Solving for k, Initial residual = 1.34756e-06, Final residual = 5.57817e-09, No Iterations 1
ExecutionTime = 36.57 s  ExecutionStepTime = 1.08 s  ClockTime = 36 s

Time = 13011

pseudoTime: iteration 131534
Pseudo Courant No: 1
Damped pseudo Courant No: Min: 1 Mean: 1 Max: 1
Pseudo deltaT: Min: 7.7311e-09 Mean: 6.02015e-07 Max: 6.81111e-06
Solving for (rho rhoU rhoE)
  GMRES iteration: 0   Residual: 1.92927e-06 (1.75911e-06 1.03783e-06 4.42835e-19) 2.24156e-06 
  GMRES iteration: 1   Residual: 6.47535e-09 (2.30023e-09 1.89831e-09 0) 5.8686e-09 
smoothSolver:  Solving for omega, Initial residual = 1.86939e-07, Final residual = 1.27853e-10, No Iterations 1
smoothSolver:  Solving for k, Initial residual = 1.34852e-06, Final residual = 5.56877e-09, No Iterations 1
ExecutionTime = 37.74 s  ExecutionStepTime = 1.17 s  ClockTime = 38 s

Time = 13012

pseudoTime: iteration 131535
Pseudo Courant No: 1
Damped pseudo Courant No: Min: 1 Mean: 1 Max: 1
Pseudo deltaT: Min: 7.7311e-09 Mean: 6.02015e-07 Max: 6.81111e-06
Solving for (rho rhoU rhoE)
  GMRES iteration: 0   Residual: 1.92683e-06 (1.75897e-06 1.03735e-06 4.42835e-19) 2.24746e-06 
  GMRES iteration: 1   Residual: 6.4668e-09 (2.31383e-09 1.91551e-09 0) 5.86157e-09 
smoothSolver:  Solving for omega, Initial residual = 1.84895e-07, Final residual = 1.25782e-10, No Iterations 1
smoothSolver:  Solving for k, Initial residual = 1.34595e-06, Final residual = 5.5679e-09, No Iterations 1
ExecutionTime = 38.91 s  ExecutionStepTime = 1.17 s  ClockTime = 39 s

Time = 13012

pseudoTime: iteration 131536
Pseudo Courant No: 1
Damped pseudo Courant No: Min: 1 Mean: 1 Max: 1
Pseudo deltaT: Min: 7.7311e-09 Mean: 6.02015e-07 Max: 6.81111e-06
Solving for (rho rhoU rhoE)
  GMRES iteration: 0   Residual: 1.94844e-06 (1.76828e-06 1.03986e-06 4.42836e-19) 2.26851e-06 
  GMRES iteration: 1   Residual: 6.58093e-09 (2.31067e-09 1.88356e-09 0) 5.9513e-09 
smoothSolver:  Solving for omega, Initial residual = 1.82114e-07, Final residual = 1.23278e-10, No Iterations 1
smoothSolver:  Solving for k, Initial residual = 1.34684e-06, Final residual = 5.55816e-09, No Iterations 1
ExecutionTime = 39.86 s  ExecutionStepTime = 0.95 s  ClockTime = 40 s

Time = 13012

pseudoTime: iteration 131537
Pseudo Courant No: 1
Damped pseudo Courant No: Min: 1 Mean: 1 Max: 1
Pseudo deltaT: Min: 7.7311e-09 Mean: 6.02015e-07 Max: 6.81111e-06
Solving for (rho rhoU rhoE)
  GMRES iteration: 0   Residual: 1.98733e-06 (1.78939e-06 1.05481e-06 4.42835e-19) 2.36996e-06 
  GMRES iteration: 1   Residual: 6.64561e-09 (2.2899e-09 1.85483e-09 0) 5.95992e-09 
smoothSolver:  Solving for omega, Initial residual = 1.81512e-07, Final residual = 1.21504e-10, No Iterations 1
smoothSolver:  Solving for k, Initial residual = 1.34441e-06, Final residual = 5.557e-09, No Iterations 1
ExecutionTime = 40.9 s  ExecutionStepTime = 1.04 s  ClockTime = 41 s

Time = 13013

pseudoTime: iteration 131538
Pseudo Courant No: 1
Damped pseudo Courant No: Min: 1 Mean: 1 Max: 1
Pseudo deltaT: Min: 7.7311e-09 Mean: 6.02015e-07 Max: 6.81111e-06
Solving for (rho rhoU rhoE)
  GMRES iteration: 0   Residual: 1.95658e-06 (1.77279e-06 1.04889e-06 4.42836e-19) 2.27403e-06 
  GMRES iteration: 1   Residual: 6.55607e-09 (2.3156e-09 1.88483e-09 0) 5.92803e-09 
smoothSolver:  Solving for omega, Initial residual = 1.78026e-07, Final residual = 1.19225e-10, No Iterations 1
smoothSolver:  Solving for k, Initial residual = 1.34527e-06, Final residual = 5.54686e-09, No Iterations 1
ExecutionTime = 42.01 s  ExecutionStepTime = 1.11 s  ClockTime = 42 s

Time = 13013

pseudoTime: iteration 131539
Pseudo Courant No: 1
Damped pseudo Courant No: Min: 1 Mean: 1 Max: 1
Pseudo deltaT: Min: 7.7311e-09 Mean: 6.02015e-07 Max: 6.81111e-06
Solving for (rho rhoU rhoE)
  GMRES iteration: 0   Residual: 1.96407e-06 (1.77818e-06 1.05661e-06 4.42836e-19) 2.38701e-06 
  GMRES iteration: 1   Residual: 6.63135e-09 (2.33863e-09 1.8946e-09 0) 5.98806e-09 
smoothSolver:  Solving for omega, Initial residual = 1.76435e-07, Final residual = 1.17667e-10, No Iterations 1
smoothSolver:  Solving for k, Initial residual = 1.34278e-06, Final residual = 5.54558e-09, No Iterations 1
ExecutionTime = 43.23 s  ExecutionStepTime = 1.22 s  ClockTime = 43 s

Time = 13013

pseudoTime: iteration 131540
Pseudo Courant No: 1
Damped pseudo Courant No: Min: 1 Mean: 1 Max: 1
Pseudo deltaT: Min: 7.7311e-09 Mean: 6.02015e-07 Max: 6.81111e-06
Solving for (rho rhoU rhoE)
  GMRES iteration: 0   Residual: 1.97127e-06 (1.78046e-06 1.0529e-06 4.42836e-19) 2.29194e-06 
  GMRES iteration: 1   Residual: 6.51067e-09 (2.28503e-09 1.86979e-09 0) 5.84801e-09 
smoothSolver:  Solving for omega, Initial residual = 1.73958e-07, Final residual = 1.15619e-10, No Iterations 1
smoothSolver:  Solving for k, Initial residual = 1.3438e-06, Final residual = 5.53521e-09, No Iterations 1
ExecutionTime = 44.21 s  ExecutionStepTime = 0.98 s  ClockTime = 44 s

Time = 13014

pseudoTime: iteration 131541
Pseudo Courant No: 1
Damped pseudo Courant No: Min: 1 Mean: 1 Max: 1
Pseudo deltaT: Min: 7.7311e-09 Mean: 6.02015e-07 Max: 6.81111e-06
Solving for (rho rhoU rhoE)
  GMRES iteration: 0   Residual: 1.96078e-06 (1.77098e-06 1.04383e-06 4.42836e-19) 2.27415e-06 
  GMRES iteration: 1   Residual: 6.51225e-09 (2.27313e-09 1.86548e-09 0) 5.82963e-09 
smoothSolver:  Solving for omega, Initial residual = 1.7257e-07, Final residual = 1.14255e-10, No Iterations 1
smoothSolver:  Solving for k, Initial residual = 1.34117e-06, Final residual = 5.53358e-09, No Iterations 1
ExecutionTime = 45.15 s  ExecutionStepTime = 0.94 s  ClockTime = 45 s

Time = 13014

pseudoTime: iteration 131542
Pseudo Courant No: 1
Damped pseudo Courant No: Min: 1 Mean: 1 Max: 1
Pseudo deltaT: Min: 7.7311e-09 Mean: 6.02015e-07 Max: 6.81111e-06
Solving for (rho rhoU rhoE)
  GMRES iteration: 0   Residual: 1.96236e-06 (1.76903e-06 1.04118e-06 4.42836e-19) 2.29621e-06 
  GMRES iteration: 1   Residual: 6.65395e-09 (2.3207e-09 1.86989e-09 0) 5.99703e-09 
smoothSolver:  Solving for omega, Initial residual = 1.70178e-07, Final residual = 1.12372e-10, No Iterations 1
smoothSolver:  Solving for k, Initial residual = 1.34218e-06, Final residual = 5.5228e-09, No Iterations 1
ExecutionTime = 46.09 s  ExecutionStepTime = 0.94 s  ClockTime = 46 s

Time = 13014

pseudoTime: iteration 131543
Pseudo Courant No: 1
Damped pseudo Courant No: Min: 1 Mean: 1 Max: 1
Pseudo deltaT: Min: 7.7311e-09 Mean: 6.02015e-07 Max: 6.81111e-06
Solving for (rho rhoU rhoE)
  GMRES iteration: 0   Residual: 1.97336e-06 (1.7831e-06 1.06204e-06 4.42836e-19) 2.29925e-06 
  GMRES iteration: 1   Residual: 6.50091e-09 (2.29424e-09 1.88284e-09 0) 5.82354e-09 
smoothSolver:  Solving for omega, Initial residual = 1.69733e-07, Final residual = 1.11181e-10, No Iterations 1
smoothSolver:  Solving for k, Initial residual = 1.3398e-06, Final residual = 5.52083e-09, No Iterations 1
ExecutionTime = 46.97 s  ExecutionStepTime = 0.88 s  ClockTime = 47 s

Time = 13015

pseudoTime: iteration 131544
Pseudo Courant No: 1
Damped pseudo Courant No: Min: 1 Mean: 1 Max: 1
Pseudo deltaT: Min: 7.7311e-09 Mean: 6.02015e-07 Max: 6.81111e-06
Solving for (rho rhoU rhoE)
  GMRES iteration: 0   Residual: 1.94523e-06 (1.7651e-06 1.0398e-06 4.42836e-19) 2.39046e-06 
  GMRES iteration: 1   Residual: 6.66083e-09 (2.34876e-09 1.90359e-09 0) 6.03189e-09 
smoothSolver:  Solving for omega, Initial residual = 1.66949e-07, Final residual = 1.09469e-10, No Iterations 1
smoothSolver:  Solving for k, Initial residual = 1.34062e-06, Final residual = 5.50966e-09, No Iterations 1
ExecutionTime = 47.85 s  ExecutionStepTime = 0.88 s  ClockTime = 48 s

Time = 13015

pseudoTime: iteration 131545
Pseudo Courant No: 1
Damped pseudo Courant No: Min: 1 Mean: 1 Max: 1
Pseudo deltaT: Min: 7.7311e-09 Mean: 6.02015e-07 Max: 6.81111e-06
Solving for (rho rhoU rhoE)
  GMRES iteration: 0   Residual: 2.00098e-06 (1.79065e-06 1.06791e-06 4.42836e-19) 2.39095e-06 
  GMRES iteration: 1   Residual: 6.60848e-09 (2.28998e-09 1.85055e-09 0) 5.8978e-09 
smoothSolver:  Solving for omega, Initial residual = 1.66775e-07, Final residual = 1.08435e-10, No Iterations 1
smoothSolver:  Solving for k, Initial residual = 1.33809e-06, Final residual = 5.5075e-09, No Iterations 1
ExecutionTime = 48.73 s  ExecutionStepTime = 0.88 s  ClockTime = 49 s

Time = 13015

pseudoTime: iteration 131546
Pseudo Courant No: 1
Damped pseudo Courant No: Min: 1 Mean: 1 Max: 1
Pseudo deltaT: Min: 7.7311e-09 Mean: 6.02015e-07 Max: 6.81111e-06
Solving for (rho rhoU rhoE)
  GMRES iteration: 0   Residual: 1.96379e-06 (1.77274e-06 1.04886e-06 4.42836e-19) 2.29204e-06 
  GMRES iteration: 1   Residual: 6.51244e-09 (2.29659e-09 1.87014e-09 0) 5.84554e-09 
smoothSolver:  Solving for omega, Initial residual = 1.6416e-07, Final residual = 1.06862e-10, No Iterations 1
smoothSolver:  Solving for k, Initial residual = 1.33904e-06, Final residual = 5.49608e-09, No Iterations 1
ExecutionTime = 49.63 s  ExecutionStepTime = 0.9 s  ClockTime = 49 s

Time = 13016

pseudoTime: iteration 131547
Pseudo Courant No: 1
Damped pseudo Courant No: Min: 1 Mean: 1 Max: 1
Pseudo deltaT: Min: 7.7311e-09 Mean: 6.02015e-07 Max: 6.81111e-06
Solving for (rho rhoU rhoE)
  GMRES iteration: 0   Residual: 1.96589e-06 (1.7707e-06 1.04845e-06 4.42836e-19) 2.30559e-06 
  GMRES iteration: 1   Residual: 6.46516e-09 (2.28878e-09 1.88248e-09 0) 5.78819e-09 
smoothSolver:  Solving for omega, Initial residual = 1.6319e-07, Final residual = 1.05966e-10, No Iterations 1
smoothSolver:  Solving for k, Initial residual = 1.33649e-06, Final residual = 5.49378e-09, No Iterations 1
ExecutionTime = 50.72 s  ExecutionStepTime = 1.09 s  ClockTime = 51 s

Time = 13016

pseudoTime: iteration 131548
Pseudo Courant No: 1
Damped pseudo Courant No: Min: 1 Mean: 1 Max: 1
Pseudo deltaT: Min: 7.7311e-09 Mean: 6.02015e-07 Max: 6.81111e-06
Solving for (rho rhoU rhoE)
  GMRES iteration: 0   Residual: 1.96715e-06 (1.77137e-06 1.03879e-06 4.42836e-19) 2.35171e-06 
  GMRES iteration: 1   Residual: 6.58999e-09 (2.30265e-09 1.86969e-09 0) 5.90527e-09 
smoothSolver:  Solving for omega, Initial residual = 1.61575e-07, Final residual = 1.04523e-10, No Iterations 1
smoothSolver:  Solving for k, Initial residual = 1.33739e-06, Final residual = 5.48197e-09, No Iterations 1
ExecutionTime = 51.86 s  ExecutionStepTime = 1.14 s  ClockTime = 52 s

Time = 13016

pseudoTime: iteration 131549
Pseudo Courant No: 1
Damped pseudo Courant No: Min: 1 Mean: 1 Max: 1
Pseudo deltaT: Min: 7.7311e-09 Mean: 6.02015e-07 Max: 6.81111e-06
Solving for (rho rhoU rhoE)
  GMRES iteration: 0   Residual: 1.9812e-06 (1.78462e-06 1.05471e-06 4.42837e-19) 2.31741e-06 
  GMRES iteration: 1   Residual: 6.49855e-09 (2.26817e-09 1.85779e-09 0) 5.78792e-09 
smoothSolver:  Solving for omega, Initial residual = 1.61473e-07, Final residual = 1.03742e-10, No Iterations 1
smoothSolver:  Solving for k, Initial residual = 1.33479e-06, Final residual = 5.47946e-09, No Iterations 1
ExecutionTime = 52.99 s  ExecutionStepTime = 1.13 s  ClockTime = 53 s

Time = 13017

pseudoTime: iteration 131550
Pseudo Courant No: 1
Damped pseudo Courant No: Min: 1 Mean: 1 Max: 1
Pseudo deltaT: Min: 7.7311e-09 Mean: 6.02015e-07 Max: 6.81111e-06
Solving for (rho rhoU rhoE)
  GMRES iteration: 0   Residual: 1.96186e-06 (1.77709e-06 1.0468e-06 4.42837e-19) 2.30139e-06 
  GMRES iteration: 1   Residual: 6.53427e-09 (2.30475e-09 1.86526e-09 0) 5.86079e-09 
smoothSolver:  Solving for omega, Initial residual = 1.59385e-07, Final residual = 1.02362e-10, No Iterations 1
smoothSolver:  Solving for k, Initial residual = 1.3356e-06, Final residual = 5.46732e-09, No Iterations 1
ExecutionTime = 54.14 s  ExecutionStepTime = 1.15 s  ClockTime = 54 s

Time = 13017

pseudoTime: iteration 131551
Pseudo Courant No: 1
Damped pseudo Courant No: Min: 1 Mean: 1 Max: 1
Pseudo deltaT: Min: 7.7311e-09 Mean: 6.02015e-07 Max: 6.81111e-06
Solving for (rho rhoU rhoE)
  GMRES iteration: 0   Residual: 2.02414e-06 (1.80868e-06 1.06746e-06 4.42837e-19) 2.53389e-06 
  GMRES iteration: 1   Residual: 6.71422e-09 (2.32306e-09 1.85822e-09 0) 5.98488e-09 
smoothSolver:  Solving for omega, Initial residual = 1.59738e-07, Final residual = 1.01661e-10, No Iterations 1
smoothSolver:  Solving for k, Initial residual = 1.3332e-06, Final residual = 5.46452e-09, No Iterations 1
ExecutionTime = 55.31 s  ExecutionStepTime = 1.17 s  ClockTime = 55 s

Time = 13017

pseudoTime: iteration 131552
Pseudo Courant No: 1
Damped pseudo Courant No: Min: 1 Mean: 1 Max: 1
Pseudo deltaT: Min: 7.7311e-09 Mean: 6.02015e-07 Max: 6.81111e-06
Solving for (rho rhoU rhoE)
  GMRES iteration: 0   Residual: 2.00627e-06 (1.80308e-06 1.06702e-06 4.42837e-19) 2.36485e-06 
  GMRES iteration: 1   Residual: 6.46567e-09 (2.28601e-09 1.8591e-09 0) 5.77245e-09 
smoothSolver:  Solving for omega, Initial residual = 1.57275e-07, Final residual = 1.00347e-10, No Iterations 1
smoothSolver:  Solving for k, Initial residual = 1.33382e-06, Final residual = 5.45204e-09, No Iterations 1
ExecutionTime = 56.4 s  ExecutionStepTime = 1.08 s  ClockTime = 56 s

Time = 13018

pseudoTime: iteration 131553
Pseudo Courant No: 1
Damped pseudo Courant No: Min: 1 Mean: 1 Max: 1
Pseudo deltaT: Min: 7.7311e-09 Mean: 6.02015e-07 Max: 6.81111e-06
Solving for (rho rhoU rhoE)
  GMRES iteration: 0   Residual: 1.99789e-06 (1.79641e-06 1.05586e-06 4.42837e-19) 2.34975e-06 
  GMRES iteration: 1   Residual: 6.48322e-09 (2.27952e-09 1.85062e-09 0) 5.76918e-09 
smoothSolver:  Solving for omega, Initial residual = 1.56285e-07, Final residual = 9.96962e-11, No Iterations 1
smoothSolver:  Solving for k, Initial residual = 1.33119e-06, Final residual = 5.44906e-09, No Iterations 1
ExecutionTime = 57.3 s  ExecutionStepTime = 0.9 s  ClockTime = 57 s

Time = 13018

pseudoTime: iteration 131554
Pseudo Courant No: 1
Damped pseudo Courant No: Min: 1 Mean: 1 Max: 1
Pseudo deltaT: Min: 7.7311e-09 Mean: 6.02015e-07 Max: 6.81111e-06
Solving for (rho rhoU rhoE)
  GMRES iteration: 0   Residual: 2.00366e-06 (1.7994e-06 1.0511e-06 4.42837e-19) 2.37951e-06 
  GMRES iteration: 1   Residual: 6.5222e-09 (2.28707e-09 1.8521e-09 0) 5.81476e-09 
smoothSolver:  Solving for omega, Initial residual = 1.5483e-07, Final residual = 9.84781e-11, No Iterations 1
smoothSolver:  Solving for k, Initial residual = 1.33214e-06, Final residual = 5.43634e-09, No Iterations 1
ExecutionTime = 58.22 s  ExecutionStepTime = 0.92 s  ClockTime = 58 s

Time = 13018

pseudoTime: iteration 131555
Pseudo Courant No: 1
Damped pseudo Courant No: Min: 1 Mean: 1 Max: 1
Pseudo deltaT: Min: 7.7311e-09 Mean: 6.02015e-07 Max: 6.81111e-06
Solving for (rho rhoU rhoE)
  GMRES iteration: 0   Residual: 1.98036e-06 (1.79788e-06 1.05745e-06 4.42837e-19) 2.33425e-06 
  GMRES iteration: 1   Residual: 6.34374e-09 (2.27201e-09 1.87508e-09 0) 5.65232e-09 
smoothSolver:  Solving for omega, Initial residual = 1.5457e-07, Final residual = 9.79309e-11, No Iterations 1
smoothSolver:  Solving for k, Initial residual = 1.32953e-06, Final residual = 5.4333e-09, No Iterations 1
ExecutionTime = 59.06 s  ExecutionStepTime = 0.84 s  ClockTime = 59 s

Time = 13019

pseudoTime: iteration 131556
Pseudo Courant No: 1
Damped pseudo Courant No: Min: 1 Mean: 1 Max: 1
Pseudo deltaT: Min: 7.7311e-09 Mean: 6.02015e-07 Max: 6.81111e-06
Solving for (rho rhoU rhoE)
  GMRES iteration: 0   Residual: 1.9732e-06 (1.79446e-06 1.0475e-06 4.42837e-19) 2.32582e-06 
  GMRES iteration: 1   Residual: 6.48587e-09 (2.30851e-09 1.85911e-09 0) 5.80545e-09 
smoothSolver:  Solving for omega, Initial residual = 1.53065e-07, Final residual = 9.68406e-11, No Iterations 1
smoothSolver:  Solving for k, Initial residual = 1.33033e-06, Final residual = 5.42027e-09, No Iterations 1
ExecutionTime = 59.91 s  ExecutionStepTime = 0.85 s  ClockTime = 60 s

Time = 13019

pseudoTime: iteration 131557
Pseudo Courant No: 1
Damped pseudo Courant No: Min: 1 Mean: 1 Max: 1
Pseudo deltaT: Min: 7.7311e-09 Mean: 6.02015e-07 Max: 6.81111e-06
Solving for (rho rhoU rhoE)
  GMRES iteration: 0   Residual: 2.03514e-06 (1.82595e-06 1.07495e-06 4.42837e-19) 2.47765e-06 
  GMRES iteration: 1   Residual: 6.54039e-09 (2.29541e-09 1.84549e-09 0) 5.7977e-09 
smoothSolver:  Solving for omega, Initial residual = 1.53507e-07, Final residual = 9.63904e-11, No Iterations 1
smoothSolver:  Solving for k, Initial residual = 1.32778e-06, Final residual = 5.41709e-09, No Iterations 1
ExecutionTime = 60.84 s  ExecutionStepTime = 0.93 s  ClockTime = 61 s

Time = 13019

pseudoTime: iteration 131558
Pseudo Courant No: 1
Damped pseudo Courant No: Min: 1 Mean: 1 Max: 1
Pseudo deltaT: Min: 7.7311e-09 Mean: 6.02015e-07 Max: 6.81111e-06
Solving for (rho rhoU rhoE)
  GMRES iteration: 0   Residual: 2.01249e-06 (1.81748e-06 1.06502e-06 4.42837e-19) 2.48442e-06 
  GMRES iteration: 1   Residual: 6.51074e-09 (2.32599e-09 1.86702e-09 0) 5.82855e-09 
smoothSolver:  Solving for omega, Initial residual = 1.51491e-07, Final residual = 9.53046e-11, No Iterations 1
smoothSolver:  Solving for k, Initial residual = 1.32856e-06, Final residual = 5.40375e-09, No Iterations 1
ExecutionTime = 61.88 s  ExecutionStepTime = 1.04 s  ClockTime = 62 s

Time = 13020

pseudoTime: iteration 131559
Pseudo Courant No: 1
Damped pseudo Courant No: Min: 1 Mean: 1 Max: 1
Pseudo deltaT: Min: 7.7311e-09 Mean: 6.02015e-07 Max: 6.81111e-06
Solving for (rho rhoU rhoE)
  GMRES iteration: 0   Residual: 2.02154e-06 (1.82092e-06 1.07459e-06 4.42837e-19) 2.38928e-06 
  GMRES iteration: 1   Residual: 6.30987e-09 (2.27333e-09 1.85171e-09 0) 5.60436e-09 
smoothSolver:  Solving for omega, Initial residual = 1.50972e-07, Final residual = 9.49002e-11, No Iterations 1
smoothSolver:  Solving for k, Initial residual = 1.32586e-06, Final residual = 5.40034e-09, No Iterations 1
ExecutionTime = 62.91 s  ExecutionStepTime = 1.03 s  ClockTime = 63 s

Time = 13020

pseudoTime: iteration 131560
Pseudo Courant No: 1
Damped pseudo Courant No: Min: 1 Mean: 1 Max: 1
Pseudo deltaT: Min: 7.7311e-09 Mean: 6.02015e-07 Max: 6.81111e-06
Solving for (rho rhoU rhoE)
  GMRES iteration: 0   Residual: 2.00166e-06 (1.81053e-06 1.05208e-06 4.42837e-19) 2.39758e-06 
  GMRES iteration: 1   Residual: 6.38476e-09 (2.28716e-09 1.85023e-09 0) 5.68545e-09 
smoothSolver:  Solving for omega, Initial residual = 1.49337e-07, Final residual = 9.39001e-11, No Iterations 1
smoothSolver:  Solving for k, Initial residual = 1.32656e-06, Final residual = 5.38669e-09, No Iterations 1
ExecutionTime = 63.97 s  ExecutionStepTime = 1.06 s  ClockTime = 64 s

Time = 13020

pseudoTime: iteration 131561
Pseudo Courant No: 1
Damped pseudo Courant No: Min: 1 Mean: 1 Max: 1
Pseudo deltaT: Min: 7.7311e-09 Mean: 6.02015e-07 Max: 6.81111e-06
Solving for (rho rhoU rhoE)
  GMRES iteration: 0   Residual: 2.01178e-06 (1.81883e-06 1.06862e-06 4.42837e-19) 2.38056e-06 
  GMRES iteration: 1   Residual: 6.24435e-09 (2.25283e-09 1.84848e-09 0) 5.5236e-09 
smoothSolver:  Solving for omega, Initial residual = 1.49449e-07, Final residual = 9.35358e-11, No Iterations 1
smoothSolver:  Solving for k, Initial residual = 1.32394e-06, Final residual = 5.38317e-09, No Iterations 1
ExecutionTime = 65.08 s  ExecutionStepTime = 1.11 s  ClockTime = 65 s

Time = 13021

pseudoTime: iteration 131562
Pseudo Courant No: 1
Damped pseudo Courant No: Min: 1 Mean: 1 Max: 1
Pseudo deltaT: Min: 7.7311e-09 Mean: 6.02015e-07 Max: 6.81111e-06
Solving for (rho rhoU rhoE)
  GMRES iteration: 0   Residual: 1.98425e-06 (1.80539e-06 1.05407e-06 4.42837e-19) 2.35879e-06 
  GMRES iteration: 1   Residual: 6.32175e-09 (2.28592e-09 1.85028e-09 0) 5.63041e-09 
smoothSolver:  Solving for omega, Initial residual = 1.47735e-07, Final residual = 9.25459e-11, No Iterations 1
smoothSolver:  Solving for k, Initial residual = 1.32469e-06, Final residual = 5.36931e-09, No Iterations 1
ExecutionTime = 66.24 s  ExecutionStepTime = 1.16 s  ClockTime = 66 s

Time = 13021

pseudoTime: iteration 131563
Pseudo Courant No: 1
Damped pseudo Courant No: Min: 1 Mean: 1 Max: 1
Pseudo deltaT: Min: 7.7311e-09 Mean: 6.02015e-07 Max: 6.81111e-06
Solving for (rho rhoU rhoE)
  GMRES iteration: 0   Residual: 2.00787e-06 (1.81923e-06 1.07273e-06 4.42838e-19) 2.45553e-06 
  GMRES iteration: 1   Residual: 6.35946e-09 (2.30405e-09 1.85415e-09 0) 5.65341e-09 
smoothSolver:  Solving for omega, Initial residual = 1.48062e-07, Final residual = 9.22366e-11, No Iterations 1
smoothSolver:  Solving for k, Initial residual = 1.32213e-06, Final residual = 5.36569e-09, No Iterations 1
ExecutionTime = 67.39 s  ExecutionStepTime = 1.15 s  ClockTime = 67 s

Time = 13021

pseudoTime: iteration 131564
Pseudo Courant No: 1
Damped pseudo Courant No: Min: 1 Mean: 1 Max: 1
Pseudo deltaT: Min: 7.7311e-09 Mean: 6.02015e-07 Max: 6.81111e-06
Solving for (rho rhoU rhoE)
  GMRES iteration: 0   Residual: 2.01225e-06 (1.82344e-06 1.07553e-06 4.42837e-19) 2.37039e-06 
  GMRES iteration: 1   Residual: 6.26044e-09 (2.28122e-09 1.83508e-09 0) 5.5578e-09 
smoothSolver:  Solving for omega, Initial residual = 1.4679e-07, Final residual = 9.13211e-11, No Iterations 1
smoothSolver:  Solving for k, Initial residual = 1.32286e-06, Final residual = 5.35155e-09, No Iterations 1
ExecutionTime = 68.52 s  ExecutionStepTime = 1.13 s  ClockTime = 68 s

Time = 13022

pseudoTime: iteration 131565
Pseudo Courant No: 1
Damped pseudo Courant No: Min: 1 Mean: 1 Max: 1
Pseudo deltaT: Min: 7.7311e-09 Mean: 6.02015e-07 Max: 6.81111e-06
Solving for (rho rhoU rhoE)
  GMRES iteration: 0   Residual: 2.05739e-06 (1.83838e-06 1.07841e-06 4.42838e-19) 2.53091e-06 
  GMRES iteration: 1   Residual: 6.41443e-09 (2.29906e-09 1.83845e-09 0) 5.67294e-09 
smoothSolver:  Solving for omega, Initial residual = 1.47328e-07, Final residual = 9.10565e-11, No Iterations 1
smoothSolver:  Solving for k, Initial residual = 1.32031e-06, Final residual = 5.34794e-09, No Iterations 1
ExecutionTime = 69.63 s  ExecutionStepTime = 1.11 s  ClockTime = 70 s

Time = 13022

pseudoTime: iteration 131566
Pseudo Courant No: 1
Damped pseudo Courant No: Min: 1 Mean: 1 Max: 1
Pseudo deltaT: Min: 7.7311e-09 Mean: 6.02015e-07 Max: 6.81111e-06
Solving for (rho rhoU rhoE)
  GMRES iteration: 0   Residual: 2.03625e-06 (1.82729e-06 1.07921e-06 4.42838e-19) 2.43857e-06 
  GMRES iteration: 1   Residual: 6.29842e-09 (2.29514e-09 1.83093e-09 0) 5.59318e-09 
smoothSolver:  Solving for omega, Initial residual = 1.45346e-07, Final residual = 9.01117e-11, No Iterations 1
smoothSolver:  Solving for k, Initial residual = 1.32085e-06, Final residual = 5.33367e-09, No Iterations 1
ExecutionTime = 70.77 s  ExecutionStepTime = 1.14 s  ClockTime = 71 s

Time = 13022

pseudoTime: iteration 131567
Pseudo Courant No: 1
Damped pseudo Courant No: Min: 1 Mean: 1 Max: 1
Pseudo deltaT: Min: 7.7311e-09 Mean: 6.02015e-07 Max: 6.81111e-06
Solving for (rho rhoU rhoE)
  GMRES iteration: 0   Residual: 2.01053e-06 (1.82302e-06 1.08251e-06 4.42838e-19) 2.39538e-06 
  GMRES iteration: 1   Residual: 6.13585e-09 (2.27941e-09 1.84216e-09 0) 5.44001e-09 
smoothSolver:  Solving for omega, Initial residual = 1.45069e-07, Final residual = 8.98437e-11, No Iterations 1
smoothSolver:  Solving for k, Initial residual = 1.31831e-06, Final residual = 5.33004e-09, No Iterations 1
ExecutionTime = 71.89 s  ExecutionStepTime = 1.12 s  ClockTime = 72 s

Time = 13023

pseudoTime: iteration 131568
Pseudo Courant No: 1
Damped pseudo Courant No: Min: 1 Mean: 1 Max: 1
Pseudo deltaT: Min: 7.7311e-09 Mean: 6.02015e-07 Max: 6.81111e-06
Solving for (rho rhoU rhoE)
  GMRES iteration: 0   Residual: 2.00831e-06 (1.81835e-06 1.06807e-06 4.42838e-19) 2.39074e-06 
  GMRES iteration: 1   Residual: 6.15732e-09 (2.27102e-09 1.82878e-09 0) 5.45669e-09 
smoothSolver:  Solving for omega, Initial residual = 1.43769e-07, Final residual = 8.90267e-11, No Iterations 1
smoothSolver:  Solving for k, Initial residual = 1.31899e-06, Final residual = 5.31552e-09, No Iterations 1
ExecutionTime = 72.96 s  ExecutionStepTime = 1.06 s  ClockTime = 73 s

Time = 13023

pseudoTime: iteration 131569
Pseudo Courant No: 1
Damped pseudo Courant No: Min: 1 Mean: 1 Max: 1
Pseudo deltaT: Min: 7.7311e-09 Mean: 6.02015e-07 Max: 6.81111e-06
Solving for (rho rhoU rhoE)
  GMRES iteration: 0   Residual: 2.02815e-06 (1.82832e-06 1.08032e-06 4.42838e-19) 2.46586e-06 
  GMRES iteration: 1   Residual: 6.19646e-09 (2.27881e-09 1.82834e-09 0) 5.47401e-09 
smoothSolver:  Solving for omega, Initial residual = 1.4404e-07, Final residual = 8.88587e-11, No Iterations 1
smoothSolver:  Solving for k, Initial residual = 1.31634e-06, Final residual = 5.31176e-09, No Iterations 1
ExecutionTime = 73.99 s  ExecutionStepTime = 1.03 s  ClockTime = 74 s

Time = 13023

pseudoTime: iteration 131570
Pseudo Courant No: 1
Damped pseudo Courant No: Min: 1 Mean: 1 Max: 1
Pseudo deltaT: Min: 7.7311e-09 Mean: 6.02015e-07 Max: 6.81111e-06
Solving for (rho rhoU rhoE)
  GMRES iteration: 0   Residual: 2.00807e-06 (1.82285e-06 1.07857e-06 4.42838e-19) 2.37701e-06 
  GMRES iteration: 1   Residual: 6.14773e-09 (2.28929e-09 1.82079e-09 0) 5.46122e-09 
smoothSolver:  Solving for omega, Initial residual = 1.42617e-07, Final residual = 8.80435e-11, No Iterations 1
smoothSolver:  Solving for k, Initial residual = 1.31694e-06, Final residual = 5.29693e-09, No Iterations 1
ExecutionTime = 75.09 s  ExecutionStepTime = 1.1 s  ClockTime = 75 s

Time = 13024

pseudoTime: iteration 131571
Pseudo Courant No: 1
Damped pseudo Courant No: Min: 1 Mean: 1 Max: 1
Pseudo deltaT: Min: 7.7311e-09 Mean: 6.02015e-07 Max: 6.81111e-06
Solving for (rho rhoU rhoE)
  GMRES iteration: 0   Residual: 2.02347e-06 (1.83161e-06 1.08568e-06 4.42838e-19) 2.39974e-06 
  GMRES iteration: 1   Residual: 6.05016e-09 (2.26411e-09 1.82378e-09 0) 5.34569e-09 
smoothSolver:  Solving for omega, Initial residual = 1.42868e-07, Final residual = 8.78797e-11, No Iterations 1
smoothSolver:  Solving for k, Initial residual = 1.31439e-06, Final residual = 5.29304e-09, No Iterations 1
ExecutionTime = 76.02 s  ExecutionStepTime = 0.93 s  ClockTime = 76 s

Time = 13024

pseudoTime: iteration 131572
Pseudo Courant No: 1
Damped pseudo Courant No: Min: 1 Mean: 1 Max: 1
Pseudo deltaT: Min: 7.7311e-09 Mean: 6.02015e-07 Max: 6.81111e-06
Solving for (rho rhoU rhoE)
  GMRES iteration: 0   Residual: 2.02863e-06 (1.83063e-06 1.07365e-06 4.42838e-19) 2.53165e-06 
  GMRES iteration: 1   Residual: 6.21784e-09 (2.32596e-09 1.84127e-09 0) 5.53437e-09 
smoothSolver:  Solving for omega, Initial residual = 1.41639e-07, Final residual = 8.71087e-11, No Iterations 1
smoothSolver:  Solving for k, Initial residual = 1.31492e-06, Final residual = 5.27794e-09, No Iterations 1
ExecutionTime = 76.91 s  ExecutionStepTime = 0.89 s  ClockTime = 77 s

Time = 13024

pseudoTime: iteration 131573
Pseudo Courant No: 1
Damped pseudo Courant No: Min: 1 Mean: 1 Max: 1
Pseudo deltaT: Min: 7.7311e-09 Mean: 6.02015e-07 Max: 6.81111e-06
Solving for (rho rhoU rhoE)
  GMRES iteration: 0   Residual: 2.05502e-06 (1.85019e-06 1.10017e-06 4.42838e-19) 2.414e-06 
  GMRES iteration: 1   Residual: 5.93508e-09 (2.23962e-09 1.80436e-09 0) 5.22752e-09 
smoothSolver:  Solving for omega, Initial residual = 1.42328e-07, Final residual = 8.69617e-11, No Iterations 1
smoothSolver:  Solving for k, Initial residual = 1.31232e-06, Final residual = 5.27405e-09, No Iterations 1
ExecutionTime = 77.81 s  ExecutionStepTime = 0.9 s  ClockTime = 78 s

Time = 13025

pseudoTime: iteration 131574
Pseudo Courant No: 1
Damped pseudo Courant No: Min: 1 Mean: 1 Max: 1
Pseudo deltaT: Min: 7.7311e-09 Mean: 6.02015e-07 Max: 6.81111e-06
Solving for (rho rhoU rhoE)
  GMRES iteration: 0   Residual: 2.00518e-06 (1.82629e-06 1.07267e-06 4.42838e-19) 2.41365e-06 
  GMRES iteration: 1   Residual: 5.99007e-09 (2.28008e-09 1.81613e-09 0) 5.31806e-09 
smoothSolver:  Solving for omega, Initial residual = 1.40493e-07, Final residual = 8.61754e-11, No Iterations 1
smoothSolver:  Solving for k, Initial residual = 1.31278e-06, Final residual = 5.25872e-09, No Iterations 1
ExecutionTime = 78.74 s  ExecutionStepTime = 0.93 s  ClockTime = 79 s

Time = 13025

pseudoTime: iteration 131575
Pseudo Courant No: 1
Damped pseudo Courant No: Min: 1 Mean: 1 Max: 1
Pseudo deltaT: Min: 7.7311e-09 Mean: 6.02015e-07 Max: 6.81111e-06
Solving for (rho rhoU rhoE)
  GMRES iteration: 0   Residual: 2.03593e-06 (1.84362e-06 1.09399e-06 4.42838e-19) 2.49852e-06 
  GMRES iteration: 1   Residual: 5.96305e-09 (2.28133e-09 1.81537e-09 0) 5.27574e-09 
smoothSolver:  Solving for omega, Initial residual = 1.4073e-07, Final residual = 8.60506e-11, No Iterations 1
smoothSolver:  Solving for k, Initial residual = 1.31028e-06, Final residual = 5.25478e-09, No Iterations 1
ExecutionTime = 79.72 s  ExecutionStepTime = 0.98 s  ClockTime = 80 s

Time = 13025

pseudoTime: iteration 131576
Pseudo Courant No: 1
Damped pseudo Courant No: Min: 1 Mean: 1 Max: 1
Pseudo deltaT: Min: 7.7311e-09 Mean: 6.02015e-07 Max: 6.81111e-06
Solving for (rho rhoU rhoE)
  GMRES iteration: 0   Residual: 2.0285e-06 (1.84279e-06 1.08697e-06 4.42838e-19) 2.41189e-06 
  GMRES iteration: 1   Residual: 5.86278e-09 (2.25062e-09 1.79828e-09 0) 5.18813e-09 
smoothSolver:  Solving for omega, Initial residual = 1.39568e-07, Final residual = 8.53188e-11, No Iterations 1
smoothSolver:  Solving for k, Initial residual = 1.31069e-06, Final residual = 5.23935e-09, No Iterations 1
ExecutionTime = 80.68 s  ExecutionStepTime = 0.96 s  ClockTime = 81 s

Time = 13026

pseudoTime: iteration 131577
Pseudo Courant No: 1
Damped pseudo Courant No: Min: 1 Mean: 1 Max: 1
Pseudo deltaT: Min: 7.7311e-09 Mean: 6.02015e-07 Max: 6.81111e-06
Solving for (rho rhoU rhoE)
  GMRES iteration: 0   Residual: 2.02343e-06 (1.84033e-06 1.08281e-06 4.42838e-19) 2.40549e-06 
  GMRES iteration: 1   Residual: 5.847e-09 (2.24773e-09 1.79478e-09 0) 5.16551e-09 
smoothSolver:  Solving for omega, Initial residual = 1.39636e-07, Final residual = 8.52647e-11, No Iterations 1
smoothSolver:  Solving for k, Initial residual = 1.30809e-06, Final residual = 5.23559e-09, No Iterations 1
ExecutionTime = 81.76 s  ExecutionStepTime = 1.08 s  ClockTime = 82 s

Time = 13026

pseudoTime: iteration 131578
Pseudo Courant No: 1
Damped pseudo Courant No: Min: 1 Mean: 1 Max: 1
Pseudo deltaT: Min: 7.7311e-09 Mean: 6.02015e-07 Max: 6.81111e-06
Solving for (rho rhoU rhoE)
  GMRES iteration: 0   Residual: 2.02727e-06 (1.84354e-06 1.08326e-06 4.42838e-19) 2.42472e-06 
  GMRES iteration: 1   Residual: 5.90655e-09 (2.28541e-09 1.80126e-09 0) 5.24672e-09 
smoothSolver:  Solving for omega, Initial residual = 1.39052e-07, Final residual = 8.46043e-11, No Iterations 1
smoothSolver:  Solving for k, Initial residual = 1.30851e-06, Final residual = 5.22e-09, No Iterations 1
ExecutionTime = 82.78 s  ExecutionStepTime = 1.02 s  ClockTime = 83 s

Time = 13026

pseudoTime: iteration 131579
Pseudo Courant No: 1
Damped pseudo Courant No: Min: 1 Mean: 1 Max: 1
Pseudo deltaT: Min: 7.7311e-09 Mean: 6.02015e-07 Max: 6.81111e-06
Solving for (rho rhoU rhoE)
  GMRES iteration: 0   Residual: 2.04537e-06 (1.86113e-06 1.0998e-06 4.42838e-19) 2.5201e-06 
  GMRES iteration: 1   Residual: 5.85767e-09 (2.26939e-09 1.79812e-09 0) 5.18398e-09 
smoothSolver:  Solving for omega, Initial residual = 1.39918e-07, Final residual = 8.45808e-11, No Iterations 1
smoothSolver:  Solving for k, Initial residual = 1.30609e-06, Final residual = 5.21626e-09, No Iterations 1
ExecutionTime = 83.68 s  ExecutionStepTime = 0.9 s  ClockTime = 84 s

Time = 13027

pseudoTime: iteration 131580
Pseudo Courant No: 1
Damped pseudo Courant No: Min: 1 Mean: 1 Max: 1
Pseudo deltaT: Min: 7.7311e-09 Mean: 6.02015e-07 Max: 6.81111e-06
Solving for (rho rhoU rhoE)
  GMRES iteration: 0   Residual: 2.02642e-06 (1.85229e-06 1.09287e-06 4.42838e-19) 2.42453e-06 
  GMRES iteration: 1   Residual: 5.7554e-09 (2.25721e-09 1.78014e-09 0) 5.10821e-09 
smoothSolver:  Solving for omega, Initial residual = 1.38483e-07, Final residual = 8.39278e-11, No Iterations 1
smoothSolver:  Solving for k, Initial residual = 1.30622e-06, Final residual = 5.20045e-09, No Iterations 1
ExecutionTime = 84.56 s  ExecutionStepTime = 0.88 s  ClockTime = 85 s

Time = 13027

pseudoTime: iteration 131581
Pseudo Courant No: 1
Damped pseudo Courant No: Min: 1 Mean: 1 Max: 1
Pseudo deltaT: Min: 7.7311e-09 Mean: 6.02015e-07 Max: 6.81111e-06
Solving for (rho rhoU rhoE)
  GMRES iteration: 0   Residual: 2.05118e-06 (1.86374e-06 1.10133e-06 4.42838e-19) 2.50158e-06 
  GMRES iteration: 1   Residual: 5.81172e-09 (2.27768e-09 1.78349e-09 0) 5.15024e-09 
smoothSolver:  Solving for omega, Initial residual = 1.38608e-07, Final residual = 8.39172e-11, No Iterations 1
smoothSolver:  Solving for k, Initial residual = 1.30378e-06, Final residual = 5.19673e-09, No Iterations 1
ExecutionTime = 85.47 s  ExecutionStepTime = 0.91 s  ClockTime = 85 s

Time = 13027

pseudoTime: iteration 131582
Pseudo Courant No: 1
Damped pseudo Courant No: Min: 1 Mean: 1 Max: 1
Pseudo deltaT: Min: 7.7311e-09 Mean: 6.02015e-07 Max: 6.81111e-06
Solving for (rho rhoU rhoE)
  GMRES iteration: 0   Residual: 2.04778e-06 (1.86479e-06 1.09787e-06 4.42838e-19) 2.45203e-06 
  GMRES iteration: 1   Residual: 5.67028e-09 (2.24768e-09 1.77527e-09 0) 5.02661e-09 
smoothSolver:  Solving for omega, Initial residual = 1.37388e-07, Final residual = 8.32662e-11, No Iterations 1
smoothSolver:  Solving for k, Initial residual = 1.30408e-06, Final residual = 5.18076e-09, No Iterations 1
ExecutionTime = 86.4 s  ExecutionStepTime = 0.93 s  ClockTime = 86 s

Time = 13028

pseudoTime: iteration 131583
Pseudo Courant No: 1
Damped pseudo Courant No: Min: 1 Mean: 1 Max: 1
Pseudo deltaT: Min: 7.7311e-09 Mean: 6.02015e-07 Max: 6.81111e-06
Solving for (rho rhoU rhoE)
  GMRES iteration: 0   Residual: 2.0214e-06 (1.85342e-06 1.09083e-06 4.42838e-19) 2.40966e-06 
  GMRES iteration: 1   Residual: 5.56213e-09 (2.22382e-09 1.77117e-09 0) 4.92563e-09 
smoothSolver:  Solving for omega, Initial residual = 1.37195e-07, Final residual = 8.32563e-11, No Iterations 1
smoothSolver:  Solving for k, Initial residual = 1.30161e-06, Final residual = 5.17719e-09, No Iterations 1
ExecutionTime = 87.4 s  ExecutionStepTime = 1 s  ClockTime = 87 s

Time = 13028

pseudoTime: iteration 131584
Pseudo Courant No: 1
Damped pseudo Courant No: Min: 1 Mean: 1 Max: 1
Pseudo deltaT: Min: 7.7311e-09 Mean: 6.02015e-07 Max: 6.81111e-06
Solving for (rho rhoU rhoE)
  GMRES iteration: 0   Residual: 2.02471e-06 (1.85495e-06 1.08745e-06 4.42838e-19) 2.42895e-06 
  GMRES iteration: 1   Residual: 5.66995e-09 (2.26098e-09 1.76745e-09 0) 5.04643e-09 
smoothSolver:  Solving for omega, Initial residual = 1.36427e-07, Final residual = 8.2647e-11, No Iterations 1
smoothSolver:  Solving for k, Initial residual = 1.30183e-06, Final residual = 5.16111e-09, No Iterations 1
ExecutionTime = 88.38 s  ExecutionStepTime = 0.98 s  ClockTime = 88 s

Time = 13028

pseudoTime: iteration 131585
Pseudo Courant No: 1
Damped pseudo Courant No: Min: 1 Mean: 1 Max: 1
Pseudo deltaT: Min: 7.7311e-09 Mean: 6.02015e-07 Max: 6.81111e-06
Solving for (rho rhoU rhoE)
  GMRES iteration: 0   Residual: 2.05601e-06 (1.8775e-06 1.10976e-06 4.42838e-19) 2.43167e-06 
  GMRES iteration: 1   Residual: 5.48136e-09 (2.21157e-09 1.7575e-09 0) 4.84285e-09 
smoothSolver:  Solving for omega, Initial residual = 1.37492e-07, Final residual = 8.26292e-11, No Iterations 1
smoothSolver:  Solving for k, Initial residual = 1.29956e-06, Final residual = 5.1576e-09, No Iterations 1
ExecutionTime = 89.26 s  ExecutionStepTime = 0.88 s  ClockTime = 89 s

Time = 13029

pseudoTime: iteration 131586
Pseudo Courant No: 1
Damped pseudo Courant No: Min: 1 Mean: 1 Max: 1
Pseudo deltaT: Min: 7.7311e-09 Mean: 6.02015e-07 Max: 6.81111e-06
Solving for (rho rhoU rhoE)
  GMRES iteration: 0   Residual: 2.01074e-06 (1.85553e-06 1.08866e-06 4.42838e-19) 2.51581e-06 
  GMRES iteration: 1   Residual: 5.62311e-09 (2.28069e-09 1.77631e-09 0) 5.02673e-09 
smoothSolver:  Solving for omega, Initial residual = 1.35625e-07, Final residual = 8.19492e-11, No Iterations 1
smoothSolver:  Solving for k, Initial residual = 1.29962e-06, Final residual = 5.14133e-09, No Iterations 1
ExecutionTime = 90.18 s  ExecutionStepTime = 0.92 s  ClockTime = 90 s

Time = 13029

pseudoTime: iteration 131587
Pseudo Courant No: 1
Damped pseudo Courant No: Min: 1 Mean: 1 Max: 1
Pseudo deltaT: Min: 7.73111e-09 Mean: 6.02015e-07 Max: 6.81111e-06
Solving for (rho rhoU rhoE)
  GMRES iteration: 0   Residual: 2.06412e-06 (1.88194e-06 1.12011e-06 4.42838e-19) 2.52021e-06 
  GMRES iteration: 1   Residual: 5.48656e-09 (2.24465e-09 1.75374e-09 0) 4.86829e-09 
smoothSolver:  Solving for omega, Initial residual = 1.36404e-07, Final residual = 8.19441e-11, No Iterations 1
smoothSolver:  Solving for k, Initial residual = 1.29737e-06, Final residual = 5.13791e-09, No Iterations 1
ExecutionTime = 91.16 s  ExecutionStepTime = 0.98 s  ClockTime = 91 s

Time = 13029

pseudoTime: iteration 131588
Pseudo Courant No: 1
Damped pseudo Courant No: Min: 1 Mean: 1 Max: 1
Pseudo deltaT: Min: 7.73111e-09 Mean: 6.02015e-07 Max: 6.81111e-06
Solving for (rho rhoU rhoE)
  GMRES iteration: 0   Residual: 2.0284e-06 (1.86651e-06 1.09979e-06 4.42838e-19) 2.41452e-06 
  GMRES iteration: 1   Residual: 5.37252e-09 (2.20693e-09 1.73621e-09 0) 4.77216e-09 
smoothSolver:  Solving for omega, Initial residual = 1.34932e-07, Final residual = 8.13227e-11, No Iterations 1
smoothSolver:  Solving for k, Initial residual = 1.29748e-06, Final residual = 5.12163e-09, No Iterations 1
ExecutionTime = 92.21 s  ExecutionStepTime = 1.05 s  ClockTime = 92 s

Time = 13030

pseudoTime: iteration 131589
Pseudo Courant No: 1
Damped pseudo Courant No: Min: 1 Mean: 1 Max: 1
Pseudo deltaT: Min: 7.73111e-09 Mean: 6.02015e-07 Max: 6.81111e-06
Solving for (rho rhoU rhoE)
  GMRES iteration: 0   Residual: 2.02752e-06 (1.86257e-06 1.09835e-06 4.42839e-19) 2.41587e-06 
  GMRES iteration: 1   Residual: 5.29967e-09 (2.18282e-09 1.73261e-09 0) 4.68948e-09 
smoothSolver:  Solving for omega, Initial residual = 1.35062e-07, Final residual = 8.13152e-11, No Iterations 1
smoothSolver:  Solving for k, Initial residual = 1.29517e-06, Final residual = 5.11834e-09, No Iterations 1
ExecutionTime = 93.35 s  ExecutionStepTime = 1.14 s  ClockTime = 93 s

Time = 13030

pseudoTime: iteration 131590
Pseudo Courant No: 1
Damped pseudo Courant No: Min: 1 Mean: 1 Max: 1
Pseudo deltaT: Min: 7.73111e-09 Mean: 6.02015e-07 Max: 6.81111e-06
Solving for (rho rhoU rhoE)
  GMRES iteration: 0   Residual: 2.0225e-06 (1.85906e-06 1.09271e-06 4.42839e-19) 2.46168e-06 
  GMRES iteration: 1   Residual: 5.3842e-09 (2.22989e-09 1.73985e-09 0) 4.79319e-09 
smoothSolver:  Solving for omega, Initial residual = 1.34219e-07, Final residual = 8.06769e-11, No Iterations 1
smoothSolver:  Solving for k, Initial residual = 1.29536e-06, Final residual = 5.10193e-09, No Iterations 1
ExecutionTime = 94.41 s  ExecutionStepTime = 1.06 s  ClockTime = 94 s

Time = 13030

pseudoTime: iteration 131591
Pseudo Courant No: 1
Damped pseudo Courant No: Min: 1 Mean: 1 Max: 1
Pseudo deltaT: Min: 7.73111e-09 Mean: 6.02015e-07 Max: 6.81111e-06
Solving for (rho rhoU rhoE)
  GMRES iteration: 0   Residual: 2.02147e-06 (1.86757e-06 1.10954e-06 4.42839e-19) 2.4289e-06 
  GMRES iteration: 1   Residual: 5.21791e-09 (2.18794e-09 1.7284e-09 0) 4.63145e-09 
smoothSolver:  Solving for omega, Initial residual = 1.34692e-07, Final residual = 8.06614e-11, No Iterations 1
smoothSolver:  Solving for k, Initial residual = 1.29323e-06, Final residual = 5.09869e-09, No Iterations 1
ExecutionTime = 95.4 s  ExecutionStepTime = 0.99 s  ClockTime = 95 s

Time = 13031

pseudoTime: iteration 131592
Pseudo Courant No: 1
Damped pseudo Courant No: Min: 1 Mean: 1 Max: 1
Pseudo deltaT: Min: 7.73111e-09 Mean: 6.02015e-07 Max: 6.81111e-06
Solving for (rho rhoU rhoE)
  GMRES iteration: 0   Residual: 2.00249e-06 (1.85612e-06 1.09833e-06 4.42839e-19) 2.38172e-06 
  GMRES iteration: 1   Residual: 5.26434e-09 (2.20406e-09 1.71215e-09 0) 4.68875e-09 
smoothSolver:  Solving for omega, Initial residual = 1.33372e-07, Final residual = 8.00324e-11, No Iterations 1
smoothSolver:  Solving for k, Initial residual = 1.29326e-06, Final residual = 5.0821e-09, No Iterations 1
ExecutionTime = 96.42 s  ExecutionStepTime = 1.02 s  ClockTime = 96 s

Time = 13031

pseudoTime: iteration 131593
Pseudo Courant No: 1
Damped pseudo Courant No: Min: 1 Mean: 1 Max: 1
Pseudo deltaT: Min: 7.73111e-09 Mean: 6.02015e-07 Max: 6.81111e-06
Solving for (rho rhoU rhoE)
  GMRES iteration: 0   Residual: 2.07335e-06 (1.8865e-06 1.11728e-06 4.42839e-19) 2.60283e-06 
  GMRES iteration: 1   Residual: 5.39108e-09 (2.25296e-09 1.74304e-09 0) 4.79534e-09 
smoothSolver:  Solving for omega, Initial residual = 1.34547e-07, Final residual = 8.00331e-11, No Iterations 1
smoothSolver:  Solving for k, Initial residual = 1.29123e-06, Final residual = 5.07904e-09, No Iterations 1
ExecutionTime = 97.33 s  ExecutionStepTime = 0.9 s  ClockTime = 97 s

Time = 13031

pseudoTime: iteration 131594
Pseudo Courant No: 1
Damped pseudo Courant No: Min: 1 Mean: 1 Max: 1
Pseudo deltaT: Min: 7.73111e-09 Mean: 6.02015e-07 Max: 6.81111e-06
Solving for (rho rhoU rhoE)
  GMRES iteration: 0   Residual: 2.03769e-06 (1.87629e-06 1.11888e-06 4.42839e-19) 2.44576e-06 
  GMRES iteration: 1   Residual: 5.13254e-09 (2.18371e-09 1.69425e-09 0) 4.56795e-09 
smoothSolver:  Solving for omega, Initial residual = 1.32862e-07, Final residual = 7.93561e-11, No Iterations 1
smoothSolver:  Solving for k, Initial residual = 1.29123e-06, Final residual = 5.06249e-09, No Iterations 1
ExecutionTime = 98.26 s  ExecutionStepTime = 0.93 s  ClockTime = 98 s

Time = 13032

pseudoTime: iteration 131595
Pseudo Courant No: 1
Damped pseudo Courant No: Min: 1 Mean: 1 Max: 1
Pseudo deltaT: Min: 7.73111e-09 Mean: 6.02015e-07 Max: 6.81111e-06
Solving for (rho rhoU rhoE)
  GMRES iteration: 0   Residual: 2.0052e-06 (1.86085e-06 1.1108e-06 4.42839e-19) 2.41888e-06 
  GMRES iteration: 1   Residual: 5.05969e-09 (2.1719e-09 1.69447e-09 0) 4.50337e-09 
smoothSolver:  Solving for omega, Initial residual = 1.32473e-07, Final residual = 7.93076e-11, No Iterations 1
smoothSolver:  Solving for k, Initial residual = 1.28917e-06, Final residual = 5.05959e-09, No Iterations 1
ExecutionTime = 99.23 s  ExecutionStepTime = 0.97 s  ClockTime = 99 s

Time = 13032

pseudoTime: iteration 131596
Pseudo Courant No: 1
Damped pseudo Courant No: Min: 1 Mean: 1 Max: 1
Pseudo deltaT: Min: 7.73111e-09 Mean: 6.02015e-07 Max: 6.81111e-06
Solving for (rho rhoU rhoE)
  GMRES iteration: 0   Residual: 2.03399e-06 (1.87263e-06 1.11104e-06 4.42839e-19) 2.45146e-06 
  GMRES iteration: 1   Residual: 5.08256e-09 (2.17429e-09 1.69023e-09 0) 4.52257e-09 
smoothSolver:  Solving for omega, Initial residual = 1.3183e-07, Final residual = 7.86758e-11, No Iterations 1
smoothSolver:  Solving for k, Initial residual = 1.28936e-06, Final residual = 5.04303e-09, No Iterations 1
ExecutionTime = 100.3 s  ExecutionStepTime = 1.07 s  ClockTime = 100 s

Time = 13032

pseudoTime: iteration 131597
Pseudo Courant No: 1
Damped pseudo Courant No: Min: 1 Mean: 1 Max: 1
Pseudo deltaT: Min: 7.73111e-09 Mean: 6.02015e-07 Max: 6.81111e-06
Solving for (rho rhoU rhoE)
  GMRES iteration: 0   Residual: 2.03887e-06 (1.87765e-06 1.1161e-06 4.42839e-19) 2.41479e-06 
  GMRES iteration: 1   Residual: 4.94298e-09 (2.1341e-09 1.68241e-09 0) 4.38065e-09 
smoothSolver:  Solving for omega, Initial residual = 1.32358e-07, Final residual = 7.86373e-11, No Iterations 1
smoothSolver:  Solving for k, Initial residual = 1.28735e-06, Final residual = 5.04038e-09, No Iterations 1
ExecutionTime = 101.37 s  ExecutionStepTime = 1.07 s  ClockTime = 101 s

Time = 13033

pseudoTime: iteration 131598
Pseudo Courant No: 1
Damped pseudo Courant No: Min: 1 Mean: 1 Max: 1
Pseudo deltaT: Min: 7.73111e-09 Mean: 6.02015e-07 Max: 6.81111e-06
Solving for (rho rhoU rhoE)
  GMRES iteration: 0   Residual: 2.00614e-06 (1.86111e-06 1.10415e-06 4.42839e-19) 2.40865e-06 
  GMRES iteration: 1   Residual: 5.05476e-09 (2.19282e-09 1.69059e-09 0) 4.51889e-09 
smoothSolver:  Solving for omega, Initial residual = 1.30936e-07, Final residual = 7.80124e-11, No Iterations 1
smoothSolver:  Solving for k, Initial residual = 1.28735e-06, Final residual = 5.0238e-09, No Iterations 1
ExecutionTime = 102.3 s  ExecutionStepTime = 0.93 s  ClockTime = 102 s

Time = 13033

pseudoTime: iteration 131599
Pseudo Courant No: 1
Damped pseudo Courant No: Min: 1 Mean: 1 Max: 1
Pseudo deltaT: Min: 7.73111e-09 Mean: 6.02015e-07 Max: 6.81111e-06
Solving for (rho rhoU rhoE)
  GMRES iteration: 0   Residual: 2.05203e-06 (1.8947e-06 1.13497e-06 4.42839e-19) 2.50423e-06 
  GMRES iteration: 1   Residual: 4.98642e-09 (2.18005e-09 1.6835e-09 0) 4.44e-09 
smoothSolver:  Solving for omega, Initial residual = 1.32036e-07, Final residual = 7.80627e-11, No Iterations 1
smoothSolver:  Solving for k, Initial residual = 1.28555e-06, Final residual = 5.02139e-09, No Iterations 1
ExecutionTime = 103.12 s  ExecutionStepTime = 0.82 s  ClockTime = 103 s

Time = 13033

pseudoTime: iteration 131600
Pseudo Courant No: 1
Damped pseudo Courant No: Min: 1 Mean: 1 Max: 1
Pseudo deltaT: Min: 7.73111e-09 Mean: 6.02015e-07 Max: 6.81111e-06
Solving for (rho rhoU rhoE)
  GMRES iteration: 0   Residual: 2.04143e-06 (1.89088e-06 1.1217e-06 4.42839e-19) 2.54855e-06 
  GMRES iteration: 1   Residual: 4.98805e-09 (2.19071e-09 1.68049e-09 0) 4.46407e-09 
smoothSolver:  Solving for omega, Initial residual = 1.30645e-07, Final residual = 7.74837e-11, No Iterations 1
smoothSolver:  Solving for k, Initial residual = 1.28555e-06, Final residual = 5.00472e-09, No Iterations 1
ExecutionTime = 103.94 s  ExecutionStepTime = 0.82 s  ClockTime = 104 s

Time = 13034

pseudoTime: iteration 131601
Pseudo Courant No: 1
Damped pseudo Courant No: Min: 1 Mean: 1 Max: 1
Pseudo deltaT: Min: 7.73111e-09 Mean: 6.02015e-07 Max: 6.81111e-06
Solving for (rho rhoU rhoE)
  GMRES iteration: 0   Residual: 2.04542e-06 (1.89513e-06 1.12752e-06 4.42839e-19) 2.44689e-06 
  GMRES iteration: 1   Residual: 4.76318e-09 (2.10964e-09 1.6396e-09 0) 4.23077e-09 
smoothSolver:  Solving for omega, Initial residual = 1.31182e-07, Final residual = 7.75436e-11, No Iterations 1
smoothSolver:  Solving for k, Initial residual = 1.28369e-06, Final residual = 5.00266e-09, No Iterations 1
ExecutionTime = 104.83 s  ExecutionStepTime = 0.89 s  ClockTime = 105 s

Time = 13034

pseudoTime: iteration 131602
Pseudo Courant No: 1
Damped pseudo Courant No: Min: 1 Mean: 1 Max: 1
Pseudo deltaT: Min: 7.73111e-09 Mean: 6.02015e-07 Max: 6.81111e-06
Solving for (rho rhoU rhoE)
  GMRES iteration: 0   Residual: 2.01271e-06 (1.87913e-06 1.11272e-06 4.42839e-19) 2.4428e-06 
  GMRES iteration: 1   Residual: 4.83967e-09 (2.15602e-09 1.65132e-09 0) 4.32572e-09 
smoothSolver:  Solving for omega, Initial residual = 1.29813e-07, Final residual = 7.69866e-11, No Iterations 1
smoothSolver:  Solving for k, Initial residual = 1.28379e-06, Final residual = 4.98633e-09, No Iterations 1
ExecutionTime = 105.96 s  ExecutionStepTime = 1.13 s  ClockTime = 106 s

Time = 13034

pseudoTime: iteration 131603
Pseudo Courant No: 1
Damped pseudo Courant No: Min: 1 Mean: 1 Max: 1
Pseudo deltaT: Min: 7.73111e-09 Mean: 6.02015e-07 Max: 6.81111e-06
Solving for (rho rhoU rhoE)
  GMRES iteration: 0   Residual: 2.02259e-06 (1.88561e-06 1.1271e-06 4.42839e-19) 2.42921e-06 
  GMRES iteration: 1   Residual: 4.6444e-09 (2.10408e-09 1.64452e-09 0) 4.12955e-09 
smoothSolver:  Solving for omega, Initial residual = 1.30231e-07, Final residual = 7.70435e-11, No Iterations 1
smoothSolver:  Solving for k, Initial residual = 1.28211e-06, Final residual = 4.98454e-09, No Iterations 1
ExecutionTime = 107.05 s  ExecutionStepTime = 1.09 s  ClockTime = 107 s

Time = 13035

pseudoTime: iteration 131604
Pseudo Courant No: 1
Damped pseudo Courant No: Min: 1 Mean: 1 Max: 1
Pseudo deltaT: Min: 7.73111e-09 Mean: 6.02015e-07 Max: 6.81111e-06
Solving for (rho rhoU rhoE)
  GMRES iteration: 0   Residual: 2.00763e-06 (1.87791e-06 1.10536e-06 4.42839e-19) 2.39762e-06 
  GMRES iteration: 1   Residual: 4.73502e-09 (2.12124e-09 1.63873e-09 0) 4.22773e-09 
smoothSolver:  Solving for omega, Initial residual = 1.29168e-07, Final residual = 7.64946e-11, No Iterations 1
smoothSolver:  Solving for k, Initial residual = 1.28212e-06, Final residual = 4.96836e-09, No Iterations 1
ExecutionTime = 108.16 s  ExecutionStepTime = 1.11 s  ClockTime = 108 s

Time = 13035

pseudoTime: iteration 131605
Pseudo Courant No: 1
Damped pseudo Courant No: Min: 1 Mean: 1 Max: 1
Pseudo deltaT: Min: 7.73111e-09 Mean: 6.02016e-07 Max: 6.81111e-06
Solving for (rho rhoU rhoE)
  GMRES iteration: 0   Residual: 2.0601e-06 (1.9026e-06 1.13382e-06 4.42839e-19) 2.49274e-06 
  GMRES iteration: 1   Residual: 4.80499e-09 (2.17604e-09 1.65211e-09 0) 4.2946e-09 
smoothSolver:  Solving for omega, Initial residual = 1.30075e-07, Final residual = 7.6576e-11, No Iterations 1
smoothSolver:  Solving for k, Initial residual = 1.28044e-06, Final residual = 4.96687e-09, No Iterations 1
ExecutionTime = 109.24 s  ExecutionStepTime = 1.08 s  ClockTime = 109 s

Time = 13035

pseudoTime: iteration 131606
Pseudo Courant No: 1
Damped pseudo Courant No: Min: 1 Mean: 1 Max: 1
Pseudo deltaT: Min: 7.73111e-09 Mean: 6.02016e-07 Max: 6.81111e-06
Solving for (rho rhoU rhoE)
  GMRES iteration: 0   Residual: 2.04822e-06 (1.90288e-06 1.13282e-06 4.42839e-19) 2.45756e-06 
  GMRES iteration: 1   Residual: 4.68246e-09 (2.13986e-09 1.62744e-09 0) 4.18366e-09 
smoothSolver:  Solving for omega, Initial residual = 1.29507e-07, Final residual = 7.60089e-11, No Iterations 1
smoothSolver:  Solving for k, Initial residual = 1.28051e-06, Final residual = 4.9508e-09, No Iterations 1
ExecutionTime = 110.37 s  ExecutionStepTime = 1.13 s  ClockTime = 110 s

Time = 13036

pseudoTime: iteration 131607
Pseudo Courant No: 1
Damped pseudo Courant No: Min: 1 Mean: 1 Max: 1
Pseudo deltaT: Min: 7.73111e-09 Mean: 6.02016e-07 Max: 6.81111e-06
Solving for (rho rhoU rhoE)
  GMRES iteration: 0   Residual: 2.06469e-06 (1.90878e-06 1.13336e-06 4.42839e-19) 2.55993e-06 
  GMRES iteration: 1   Residual: 4.70984e-09 (2.15976e-09 1.63899e-09 0) 4.21202e-09 
smoothSolver:  Solving for omega, Initial residual = 1.29982e-07, Final residual = 7.60774e-11, No Iterations 1
smoothSolver:  Solving for k, Initial residual = 1.27928e-06, Final residual = 4.94997e-09, No Iterations 1
ExecutionTime = 111.3 s  ExecutionStepTime = 0.93 s  ClockTime = 111 s

Time = 13036

pseudoTime: iteration 131608
Pseudo Courant No: 1
Damped pseudo Courant No: Min: 1 Mean: 1 Max: 1
Pseudo deltaT: Min: 7.73111e-09 Mean: 6.02016e-07 Max: 6.81111e-06
Solving for (rho rhoU rhoE)
  GMRES iteration: 0   Residual: 2.05701e-06 (1.9095e-06 1.13325e-06 4.42839e-19) 2.49288e-06 
  GMRES iteration: 1   Residual: 4.62129e-09 (2.1412e-09 1.61749e-09 0) 4.13466e-09 
smoothSolver:  Solving for omega, Initial residual = 1.28905e-07, Final residual = 7.54874e-11, No Iterations 1
smoothSolver:  Solving for k, Initial residual = 1.27913e-06, Final residual = 4.9338e-09, No Iterations 1
ExecutionTime = 112.14 s  ExecutionStepTime = 0.84 s  ClockTime = 112 s

Time = 13036

pseudoTime: iteration 131609
Pseudo Courant No: 1
Damped pseudo Courant No: Min: 1 Mean: 1 Max: 1
Pseudo deltaT: Min: 7.73111e-09 Mean: 6.02016e-07 Max: 6.81111e-06
Solving for (rho rhoU rhoE)
  GMRES iteration: 0   Residual: 2.04595e-06 (1.90457e-06 1.13699e-06 4.42839e-19) 2.44883e-06 
  GMRES iteration: 1   Residual: 4.45637e-09 (2.08273e-09 1.60152e-09 0) 3.96189e-09 
smoothSolver:  Solving for omega, Initial residual = 1.28721e-07, Final residual = 7.55183e-11, No Iterations 1
smoothSolver:  Solving for k, Initial residual = 1.27736e-06, Final residual = 4.93288e-09, No Iterations 1
ExecutionTime = 112.89 s  ExecutionStepTime = 0.75 s  ClockTime = 113 s

Time = 13037

pseudoTime: iteration 131610
Pseudo Courant No: 1
Damped pseudo Courant No: Min: 1 Mean: 1 Max: 1
Pseudo deltaT: Min: 7.73111e-09 Mean: 6.02016e-07 Max: 6.81111e-06
Solving for (rho rhoU rhoE)
  GMRES iteration: 0   Residual: 2.02538e-06 (1.88722e-06 1.12297e-06 4.42839e-19) 2.41098e-06 
  GMRES iteration: 1   Residual: 4.5784e-09 (2.14296e-09 1.61306e-09 0) 4.10492e-09 
smoothSolver:  Solving for omega, Initial residual = 1.27108e-07, Final residual = 7.49304e-11, No Iterations 1
smoothSolver:  Solving for k, Initial residual = 1.27727e-06, Final residual = 4.91703e-09, No Iterations 1
ExecutionTime = 113.73 s  ExecutionStepTime = 0.84 s  ClockTime = 114 s

Time = 13037

pseudoTime: iteration 131611
Pseudo Courant No: 1
Damped pseudo Courant No: Min: 1 Mean: 1 Max: 1
Pseudo deltaT: Min: 7.73111e-09 Mean: 6.02016e-07 Max: 6.81111e-06
Solving for (rho rhoU rhoE)
  GMRES iteration: 0   Residual: 2.08064e-06 (1.91476e-06 1.14716e-06 4.4284e-19) 2.53736e-06 
  GMRES iteration: 1   Residual: 4.53546e-09 (2.14399e-09 1.61738e-09 0) 4.04601e-09 
smoothSolver:  Solving for omega, Initial residual = 1.28155e-07, Final residual = 7.50128e-11, No Iterations 1
smoothSolver:  Solving for k, Initial residual = 1.27601e-06, Final residual = 4.91668e-09, No Iterations 1
ExecutionTime = 114.79 s  ExecutionStepTime = 1.06 s  ClockTime = 115 s

Time = 13037

pseudoTime: iteration 131612
Pseudo Courant No: 1
Damped pseudo Courant No: Min: 1 Mean: 1 Max: 1
Pseudo deltaT: Min: 7.73111e-09 Mean: 6.02016e-07 Max: 6.81111e-06
Solving for (rho rhoU rhoE)
  GMRES iteration: 0   Residual: 2.04365e-06 (1.89925e-06 1.128e-06 4.4284e-19) 2.44249e-06 
  GMRES iteration: 1   Residual: 4.47167e-09 (2.10796e-09 1.58828e-09 0) 3.99587e-09 
smoothSolver:  Solving for omega, Initial residual = 1.27084e-07, Final residual = 7.44379e-11, No Iterations 1
smoothSolver:  Solving for k, Initial residual = 1.27598e-06, Final residual = 4.90097e-09, No Iterations 1
ExecutionTime = 115.82 s  ExecutionStepTime = 1.03 s  ClockTime = 116 s

Time = 13038

pseudoTime: iteration 131613
Pseudo Courant No: 1
Damped pseudo Courant No: Min: 1 Mean: 1 Max: 1
Pseudo deltaT: Min: 7.73111e-09 Mean: 6.02016e-07 Max: 6.81111e-06
Solving for (rho rhoU rhoE)
  GMRES iteration: 0   Residual: 2.0523e-06 (1.90708e-06 1.13997e-06 4.4284e-19) 2.42966e-06 
  GMRES iteration: 1   Residual: 4.3872e-09 (2.0875e-09 1.58008e-09 0) 3.90031e-09 
smoothSolver:  Solving for omega, Initial residual = 1.27659e-07, Final residual = 7.44986e-11, No Iterations 1
smoothSolver:  Solving for k, Initial residual = 1.27433e-06, Final residual = 4.90068e-09, No Iterations 1
ExecutionTime = 116.97 s  ExecutionStepTime = 1.15 s  ClockTime = 117 s

Time = 13038

pseudoTime: iteration 131614
Pseudo Courant No: 1
Damped pseudo Courant No: Min: 1 Mean: 1 Max: 1
Pseudo deltaT: Min: 7.73111e-09 Mean: 6.02016e-07 Max: 6.81111e-06
Solving for (rho rhoU rhoE)
  GMRES iteration: 0   Residual: 2.0557e-06 (1.90523e-06 1.13868e-06 4.4284e-19) 2.61016e-06 
  GMRES iteration: 1   Residual: 4.56378e-09 (2.19736e-09 1.62879e-09 0) 4.09987e-09 
[...]
ExecutionTime = 142.3 s  ExecutionStepTime = 1.12 s  ClockTime = 142 s

Time = 13046

pseudoTime: iteration 131637
Pseudo Courant No: 1
Damped pseudo Courant No: Min: 1 Mean: 1 Max: 1
Pseudo deltaT: Min: 7.73111e-09 Mean: 6.02016e-07 Max: 6.81111e-06
Solving for (rho rhoU rhoE)
  GMRES iteration: 0   Residual: 2.13601e-06 (1.92989e-06 1.17344e-06 4.42841e-19) 2.51733e-06 
  GMRES iteration: 1   Residual: 4.44544e-09 (2.08907e-09 1.49812e-09 0) 3.88691e-09 
smoothSolver:  Solving for omega, Initial residual = 1.23394e-07, Final residual = 7.05905e-11, No Iterations 1
smoothSolver:  Solving for k, Initial residual = 1.26276e-06, Final residual = 4.79035e-09, No Iterations 1
ExecutionTime = 143.38 s  ExecutionStepTime = 1.08 s  ClockTime = 143 s

Time = 13046

pseudoTime: iteration 131638
Pseudo Courant No: 1
Damped pseudo Courant No: Min: 1 Mean: 1 Max: 1
Pseudo deltaT: Min: 7.73111e-09 Mean: 6.02016e-07 Max: 6.81111e-06
Solving for (rho rhoU rhoE)
  GMRES iteration: 0   Residual: 2.13494e-06 (1.92439e-06 1.16873e-06 4.42841e-19) 2.55876e-06 
  GMRES iteration: 1   Residual: 4.61587e-09 (2.16299e-09 1.51164e-09 0) 4.0551e-09 
smoothSolver:  Solving for omega, Initial residual = 1.2282e-07, Final residual = 7.01975e-11, No Iterations 1
smoothSolver:  Solving for k, Initial residual = 1.26275e-06, Final residual = 4.7817e-09, No Iterations 1
ExecutionTime = 144.53 s  ExecutionStepTime = 1.15 s  ClockTime = 145 s

Time = 13046

pseudoTime: iteration 131639
Pseudo Courant No: 1
Damped pseudo Courant No: Min: 1 Mean: 1 Max: 1
Pseudo deltaT: Min: 7.73111e-09 Mean: 6.02016e-07 Max: 6.81111e-06
Solving for (rho rhoU rhoE)
  GMRES iteration: 0   Residual: 2.13409e-06 (1.92853e-06 1.17374e-06 4.42841e-19) 2.50545e-06 
  GMRES iteration: 1   Residual: 4.46687e-09 (2.08181e-09 1.49817e-09 0) 3.89721e-09 
smoothSolver:  Solving for omega, Initial residual = 1.23334e-07, Final residual = 7.03767e-11, No Iterations 1
smoothSolver:  Solving for k, Initial residual = 1.2626e-06, Final residual = 4.78858e-09, No Iterations 1
ExecutionTime = 145.53 s  ExecutionStepTime = 1 s  ClockTime = 146 s

Time = 13047

pseudoTime: iteration 131640
Pseudo Courant No: 1
Damped pseudo Courant No: Min: 1 Mean: 1 Max: 1
Pseudo deltaT: Min: 7.73111e-09 Mean: 6.02016e-07 Max: 6.81111e-06
Solving for (rho rhoU rhoE)
  GMRES iteration: 0   Residual: 2.11252e-06 (1.91241e-06 1.15831e-06 4.42841e-19) 2.49868e-06 
  GMRES iteration: 1   Residual: 4.58274e-09 (2.1072e-09 1.48926e-09 0) 4.00435e-09 
smoothSolver:  Solving for omega, Initial residual = 1.22296e-07, Final residual = 6.99771e-11, No Iterations 1
smoothSolver:  Solving for k, Initial residual = 1.26238e-06, Final residual = 4.78031e-09, No Iterations 1
ExecutionTime = 146.53 s  ExecutionStepTime = 1 s  ClockTime = 147 s

Time = 13047

pseudoTime: iteration 131641
Pseudo Courant No: 1
Damped pseudo Courant No: Min: 1 Mean: 1 Max: 1
Pseudo deltaT: Min: 7.73111e-09 Mean: 6.02016e-07 Max: 6.81111e-06
Solving for (rho rhoU rhoE)
  GMRES iteration: 0   Residual: 2.14586e-06 (1.92778e-06 1.18081e-06 4.42841e-19) 2.5791e-06 
  GMRES iteration: 1   Residual: 4.75341e-09 (2.19222e-09 1.50852e-09 0) 4.16468e-09 
smoothSolver:  Solving for omega, Initial residual = 1.23213e-07, Final residual = 7.019e-11, No Iterations 1
smoothSolver:  Solving for k, Initial residual = 1.26235e-06, Final residual = 4.78775e-09, No Iterations 1
ExecutionTime = 147.49 s  ExecutionStepTime = 0.96 s  ClockTime = 147 s

Time = 13047

pseudoTime: iteration 131642
Pseudo Courant No: 1
Damped pseudo Courant No: Min: 1 Mean: 1 Max: 1
Pseudo deltaT: Min: 7.73111e-09 Mean: 6.02016e-07 Max: 6.81111e-06
Solving for (rho rhoU rhoE)
  GMRES iteration: 0   Residual: 2.15822e-06 (1.93824e-06 1.18557e-06 4.42841e-19) 2.63815e-06 
  GMRES iteration: 1   Residual: 4.73816e-09 (2.17363e-09 1.49544e-09 0) 4.14649e-09 
smoothSolver:  Solving for omega, Initial residual = 1.22734e-07, Final residual = 6.97731e-11, No Iterations 1
smoothSolver:  Solving for k, Initial residual = 1.26238e-06, Final residual = 4.78032e-09, No Iterations 1
ExecutionTime = 148.41 s  ExecutionStepTime = 0.92 s  ClockTime = 148 s

Time = 13048

pseudoTime: iteration 131643
Pseudo Courant No: 1
Damped pseudo Courant No: Min: 1 Mean: 1 Max: 1
Pseudo deltaT: Min: 7.73111e-09 Mean: 6.02016e-07 Max: 6.81111e-06
Solving for (rho rhoU rhoE)
  GMRES iteration: 0   Residual: 2.14467e-06 (1.9279e-06 1.18178e-06 4.42842e-19) 2.52945e-06 
  GMRES iteration: 1   Residual: 4.59929e-09 (2.10745e-09 1.48075e-09 0) 4.00429e-09 
smoothSolver:  Solving for omega, Initial residual = 1.22679e-07, Final residual = 6.99569e-11, No Iterations 1
smoothSolver:  Solving for k, Initial residual = 1.2623e-06, Final residual = 4.78841e-09, No Iterations 1
ExecutionTime = 149.34 s  ExecutionStepTime = 0.93 s  ClockTime = 149 s

Time = 13048

pseudoTime: iteration 131644
Pseudo Courant No: 1
Damped pseudo Courant No: Min: 1 Mean: 1 Max: 1
Pseudo deltaT: Min: 7.73111e-09 Mean: 6.02016e-07 Max: 6.81111e-06
Solving for (rho rhoU rhoE)
  GMRES iteration: 0   Residual: 2.13247e-06 (1.92174e-06 1.16519e-06 4.42842e-19) 2.53513e-06 
  GMRES iteration: 1   Residual: 4.77423e-09 (2.16564e-09 1.49038e-09 0) 4.16961e-09 
smoothSolver:  Solving for omega, Initial residual = 1.21627e-07, Final residual = 6.9565e-11, No Iterations 1
smoothSolver:  Solving for k, Initial residual = 1.26225e-06, Final residual = 4.78152e-09, No Iterations 1
ExecutionTime = 150.34 s  ExecutionStepTime = 1 s  ClockTime = 150 s

Time = 13048

pseudoTime: iteration 131645
Pseudo Courant No: 1
Damped pseudo Courant No: Min: 1 Mean: 1 Max: 1
Pseudo deltaT: Min: 7.73111e-09 Mean: 6.02016e-07 Max: 6.81111e-06
Solving for (rho rhoU rhoE)
  GMRES iteration: 0   Residual: 2.15807e-06 (1.93434e-06 1.1807e-06 4.42842e-19) 2.5339e-06 
  GMRES iteration: 1   Residual: 4.61793e-09 (2.09939e-09 1.48536e-09 0) 4.00777e-09 
smoothSolver:  Solving for omega, Initial residual = 1.22423e-07, Final residual = 6.97629e-11, No Iterations 1
smoothSolver:  Solving for k, Initial residual = 1.26241e-06, Final residual = 4.79012e-09, No Iterations 1
ExecutionTime = 151.22 s  ExecutionStepTime = 0.88 s  ClockTime = 151 s

Time = 13049

pseudoTime: iteration 131646
Pseudo Courant No: 1
Damped pseudo Courant No: Min: 1 Mean: 1 Max: 1
Pseudo deltaT: Min: 7.73111e-09 Mean: 6.02016e-07 Max: 6.81111e-06
Solving for (rho rhoU rhoE)
  GMRES iteration: 0   Residual: 2.1191e-06 (1.91003e-06 1.15641e-06 4.42842e-19) 2.52826e-06 
  GMRES iteration: 1   Residual: 4.85007e-09 (2.17302e-09 1.4924e-09 0) 4.23607e-09 
smoothSolver:  Solving for omega, Initial residual = 1.21349e-07, Final residual = 6.93565e-11, No Iterations 1
smoothSolver:  Solving for k, Initial residual = 1.26227e-06, Final residual = 4.78377e-09, No Iterations 1
ExecutionTime = 152.06 s  ExecutionStepTime = 0.84 s  ClockTime = 152 s

Time = 13049

pseudoTime: iteration 131647
Pseudo Courant No: 1
Damped pseudo Courant No: Min: 1 Mean: 1 Max: 1
Pseudo deltaT: Min: 7.73111e-09 Mean: 6.02016e-07 Max: 6.81111e-06
Solving for (rho rhoU rhoE)
  GMRES iteration: 0   Residual: 2.16814e-06 (1.93481e-06 1.18484e-06 4.42842e-19) 2.5992e-06 
  GMRES iteration: 1   Residual: 4.84194e-09 (2.17604e-09 1.49243e-09 0) 4.21355e-09 
smoothSolver:  Solving for omega, Initial residual = 1.225e-07, Final residual = 6.95817e-11, No Iterations 1
smoothSolver:  Solving for k, Initial residual = 1.26269e-06, Final residual = 4.79285e-09, No Iterations 1
ExecutionTime = 152.97 s  ExecutionStepTime = 0.91 s  ClockTime = 153 s

Time = 13049

pseudoTime: iteration 131648
Pseudo Courant No: 1
Damped pseudo Courant No: Min: 1 Mean: 1 Max: 1
Pseudo deltaT: Min: 7.73111e-09 Mean: 6.02016e-07 Max: 6.81111e-06
Solving for (rho rhoU rhoE)
  GMRES iteration: 0   Residual: 2.13662e-06 (1.92682e-06 1.17307e-06 4.42842e-19) 2.51119e-06 
  GMRES iteration: 1   Residual: 4.81524e-09 (2.13656e-09 1.46843e-09 0) 4.18685e-09 
smoothSolver:  Solving for omega, Initial residual = 1.21379e-07, Final residual = 6.91851e-11, No Iterations 1
smoothSolver:  Solving for k, Initial residual = 1.26257e-06, Final residual = 4.78698e-09, No Iterations 1
ExecutionTime = 153.94 s  ExecutionStepTime = 0.97 s  ClockTime = 154 s

Time = 13050

pseudoTime: iteration 131649
Pseudo Courant No: 1
Damped pseudo Courant No: Min: 1 Mean: 1 Max: 1
Pseudo deltaT: Min: 7.73111e-09 Mean: 6.02016e-07 Max: 6.81111e-06
Solving for (rho rhoU rhoE)
  GMRES iteration: 0   Residual: 2.17972e-06 (1.94204e-06 1.17769e-06 4.42842e-19) 2.6599e-06 
  GMRES iteration: 1   Residual: 4.97587e-09 (2.21116e-09 1.50611e-09 0) 4.3329e-09 
smoothSolver:  Solving for omega, Initial residual = 1.22365e-07, Final residual = 6.93895e-11, No Iterations 1
smoothSolver:  Solving for k, Initial residual = 1.263e-06, Final residual = 4.79653e-09, No Iterations 1
ExecutionTime = 154.96 s  ExecutionStepTime = 1.02 s  ClockTime = 155 s

Time = 13050

pseudoTime: iteration 131650
Pseudo Courant No: 1
Damped pseudo Courant No: Min: 1 Mean: 1 Max: 1
Pseudo deltaT: Min: 7.73111e-09 Mean: 6.02016e-07 Max: 6.81111e-06
Solving for (rho rhoU rhoE)
  GMRES iteration: 0   Residual: 2.15245e-06 (1.9263e-06 1.17174e-06 4.42842e-19) 2.55928e-06 
  GMRES iteration: 1   Residual: 4.95876e-09 (2.18963e-09 1.48663e-09 0) 4.31973e-09 
smoothSolver:  Solving for omega, Initial residual = 1.21147e-07, Final residual = 6.89849e-11, No Iterations 1
smoothSolver:  Solving for k, Initial residual = 1.26294e-06, Final residual = 4.79136e-09, No Iterations 1
ExecutionTime = 155.88 s  ExecutionStepTime = 0.92 s  ClockTime = 156 s

Time = 13050

pseudoTime: iteration 131651
Pseudo Courant No: 1
Damped pseudo Courant No: Min: 1 Mean: 1 Max: 1
Pseudo deltaT: Min: 7.73111e-09 Mean: 6.02016e-07 Max: 6.81111e-06
Solving for (rho rhoU rhoE)
  GMRES iteration: 0   Residual: 2.14143e-06 (1.92352e-06 1.17109e-06 4.42842e-19) 2.55083e-06 
  GMRES iteration: 1   Residual: 4.96436e-09 (2.19352e-09 1.50015e-09 0) 4.31812e-09 
smoothSolver:  Solving for omega, Initial residual = 1.21219e-07, Final residual = 6.9149e-11, No Iterations 1
smoothSolver:  Solving for k, Initial residual = 1.26338e-06, Final residual = 4.80142e-09, No Iterations 1
ExecutionTime = 156.73 s  ExecutionStepTime = 0.85 s  ClockTime = 157 s

Time = 13051

pseudoTime: iteration 131652
Pseudo Courant No: 1
Damped pseudo Courant No: Min: 1 Mean: 1 Max: 1
Pseudo deltaT: Min: 7.73111e-09 Mean: 6.02016e-07 Max: 6.81111e-06
Solving for (rho rhoU rhoE)
  GMRES iteration: 0   Residual: 2.13746e-06 (1.91914e-06 1.16051e-06 4.42843e-19) 2.51709e-06 
  GMRES iteration: 1   Residual: 5.08801e-09 (2.22027e-09 1.48656e-09 0) 4.43648e-09 
smoothSolver:  Solving for omega, Initial residual = 1.20593e-07, Final residual = 6.87593e-11, No Iterations 1
smoothSolver:  Solving for k, Initial residual = 1.26345e-06, Final residual = 4.7968e-09, No Iterations 1
ExecutionTime = 157.56 s  ExecutionStepTime = 0.83 s  ClockTime = 158 s

Time = 13051

pseudoTime: iteration 131653
Pseudo Courant No: 1
Damped pseudo Courant No: Min: 1 Mean: 1 Max: 1
Pseudo deltaT: Min: 7.73111e-09 Mean: 6.02016e-07 Max: 6.81111e-06
Solving for (rho rhoU rhoE)
  GMRES iteration: 0   Residual: 2.16978e-06 (1.93551e-06 1.17096e-06 4.42843e-19) 2.59261e-06 
  GMRES iteration: 1   Residual: 5.198e-09 (2.26418e-09 1.50266e-09 0) 4.5311e-09 
smoothSolver:  Solving for omega, Initial residual = 1.21369e-07, Final residual = 6.89599e-11, No Iterations 1
smoothSolver:  Solving for k, Initial residual = 1.26396e-06, Final residual = 4.80722e-09, No Iterations 1
ExecutionTime = 158.47 s  ExecutionStepTime = 0.91 s  ClockTime = 158 s

Time = 13051

pseudoTime: iteration 131654
Pseudo Courant No: 1
Damped pseudo Courant No: Min: 1 Mean: 1 Max: 1
Pseudo deltaT: Min: 7.73111e-09 Mean: 6.02016e-07 Max: 6.81111e-06
Solving for (rho rhoU rhoE)
  GMRES iteration: 0   Residual: 2.1729e-06 (1.93995e-06 1.17424e-06 4.42843e-19) 2.56857e-06 
  GMRES iteration: 1   Residual: 5.20758e-09 (2.26127e-09 1.4991e-09 0) 4.54613e-09 
smoothSolver:  Solving for omega, Initial residual = 1.20901e-07, Final residual = 6.85765e-11, No Iterations 1
smoothSolver:  Solving for k, Initial residual = 1.26414e-06, Final residual = 4.80301e-09, No Iterations 1
ExecutionTime = 159.39 s  ExecutionStepTime = 0.92 s  ClockTime = 159 s

Time = 13052

pseudoTime: iteration 131655
Pseudo Courant No: 1
Damped pseudo Courant No: Min: 1 Mean: 1 Max: 1
Pseudo deltaT: Min: 7.73111e-09 Mean: 6.02016e-07 Max: 6.81111e-06
Solving for (rho rhoU rhoE)
  GMRES iteration: 0   Residual: 2.16218e-06 (1.92893e-06 1.17446e-06 4.42843e-19) 2.52513e-06 
  GMRES iteration: 1   Residual: 5.23968e-09 (2.2567e-09 1.50154e-09 0) 4.5671e-09 
smoothSolver:  Solving for omega, Initial residual = 1.20924e-07, Final residual = 6.8786e-11, No Iterations 1
smoothSolver:  Solving for k, Initial residual = 1.2646e-06, Final residual = 4.81377e-09, No Iterations 1
ExecutionTime = 160.4 s  ExecutionStepTime = 1.01 s  ClockTime = 160 s

Time = 13052

pseudoTime: iteration 131656
Pseudo Courant No: 1
Damped pseudo Courant No: Min: 1 Mean: 1 Max: 1
Pseudo deltaT: Min: 7.73111e-09 Mean: 6.02016e-07 Max: 6.81111e-06
Solving for (rho rhoU rhoE)
  GMRES iteration: 0   Residual: 2.19225e-06 (1.94338e-06 1.17779e-06 4.42843e-19) 2.67149e-06 
  GMRES iteration: 1   Residual: 5.35517e-09 (2.29789e-09 1.51871e-09 0) 4.67288e-09 
smoothSolver:  Solving for omega, Initial residual = 1.20757e-07, Final residual = 6.84657e-11, No Iterations 1
smoothSolver:  Solving for k, Initial residual = 1.26498e-06, Final residual = 4.81015e-09, No Iterations 1
ExecutionTime = 161.51 s  ExecutionStepTime = 1.11 s  ClockTime = 162 s

Time = 13052

pseudoTime: iteration 131657
Pseudo Courant No: 1
Damped pseudo Courant No: Min: 1 Mean: 1 Max: 1
Pseudo deltaT: Min: 7.73111e-09 Mean: 6.02016e-07 Max: 6.81111e-06
Solving for (rho rhoU rhoE)
  GMRES iteration: 0   Residual: 2.19348e-06 (1.94919e-06 1.18639e-06 4.42843e-19) 2.55077e-06 
  GMRES iteration: 1   Residual: 5.19497e-09 (2.21378e-09 1.49285e-09 0) 4.50278e-09 
smoothSolver:  Solving for omega, Initial residual = 1.21403e-07, Final residual = 6.86676e-11, No Iterations 1
smoothSolver:  Solving for k, Initial residual = 1.26542e-06, Final residual = 4.82128e-09, No Iterations 1
ExecutionTime = 162.63 s  ExecutionStepTime = 1.12 s  ClockTime = 163 s

Time = 13053

pseudoTime: iteration 131658
Pseudo Courant No: 1
Damped pseudo Courant No: Min: 1 Mean: 1 Max: 1
Pseudo deltaT: Min: 7.73111e-09 Mean: 6.02016e-07 Max: 6.81111e-06
Solving for (rho rhoU rhoE)
  GMRES iteration: 0   Residual: 2.1409e-06 (1.91929e-06 1.16189e-06 4.42843e-19) 2.50115e-06 
  GMRES iteration: 1   Residual: 5.32829e-09 (2.24514e-09 1.49788e-09 0) 4.63372e-09 
smoothSolver:  Solving for omega, Initial residual = 1.19821e-07, Final residual = 6.82852e-11, No Iterations 1
smoothSolver:  Solving for k, Initial residual = 1.26564e-06, Final residual = 4.81828e-09, No Iterations 1
ExecutionTime = 163.72 s  ExecutionStepTime = 1.09 s  ClockTime = 164 s

Time = 13053

pseudoTime: iteration 131659
Pseudo Courant No: 1
Damped pseudo Courant No: Min: 1 Mean: 1 Max: 1
Pseudo deltaT: Min: 7.73111e-09 Mean: 6.02016e-07 Max: 6.81111e-06
Solving for (rho rhoU rhoE)
  GMRES iteration: 0   Residual: 2.19129e-06 (1.93851e-06 1.18306e-06 4.42843e-19) 2.61896e-06 
  GMRES iteration: 1   Residual: 5.34034e-09 (2.26498e-09 1.51961e-09 0) 4.63239e-09 
smoothSolver:  Solving for omega, Initial residual = 1.20793e-07, Final residual = 6.85077e-11, No Iterations 1
smoothSolver:  Solving for k, Initial residual = 1.26641e-06, Final residual = 4.8299e-09, No Iterations 1
ExecutionTime = 164.86 s  ExecutionStepTime = 1.14 s  ClockTime = 165 s

Time = 13053

pseudoTime: iteration 131660
Pseudo Courant No: 1
Damped pseudo Courant No: Min: 1 Mean: 1 Max: 1
Pseudo deltaT: Min: 7.73111e-09 Mean: 6.02016e-07 Max: 6.81111e-06
Solving for (rho rhoU rhoE)
  GMRES iteration: 0   Residual: 2.17096e-06 (1.92793e-06 1.17039e-06 4.42843e-19) 2.53591e-06 
  GMRES iteration: 1   Residual: 5.3521e-09 (2.2243e-09 1.50167e-09 0) 4.63945e-09 
smoothSolver:  Solving for omega, Initial residual = 1.19533e-07, Final residual = 6.8161e-11, No Iterations 1
smoothSolver:  Solving for k, Initial residual = 1.26662e-06, Final residual = 4.82723e-09, No Iterations 1
ExecutionTime = 165.88 s  ExecutionStepTime = 1.02 s  ClockTime = 166 s

Time = 13054

pseudoTime: iteration 131661
Pseudo Courant No: 1
Damped pseudo Courant No: Min: 1 Mean: 1 Max: 1
Pseudo deltaT: Min: 7.73111e-09 Mean: 6.02016e-07 Max: 6.81111e-06
Solving for (rho rhoU rhoE)
  GMRES iteration: 0   Residual: 2.19488e-06 (1.93088e-06 1.1779e-06 4.42844e-19) 2.52702e-06 
  GMRES iteration: 1   Residual: 5.30502e-09 (2.20697e-09 1.50805e-09 0) 4.58264e-09 
smoothSolver:  Solving for omega, Initial residual = 1.20289e-07, Final residual = 6.83886e-11, No Iterations 1
smoothSolver:  Solving for k, Initial residual = 1.26718e-06, Final residual = 4.83909e-09, No Iterations 1
ExecutionTime = 166.97 s  ExecutionStepTime = 1.09 s  ClockTime = 167 s

Time = 13054

pseudoTime: iteration 131662
Pseudo Courant No: 1
Damped pseudo Courant No: Min: 1 Mean: 1 Max: 1
Pseudo deltaT: Min: 7.73111e-09 Mean: 6.02016e-07 Max: 6.81111e-06
Solving for (rho rhoU rhoE)
  GMRES iteration: 0   Residual: 2.16062e-06 (1.91449e-06 1.1656e-06 4.42844e-19) 2.55275e-06 
  GMRES iteration: 1   Residual: 5.48498e-09 (2.27679e-09 1.5181e-09 0) 4.76307e-09 
smoothSolver:  Solving for omega, Initial residual = 1.19286e-07, Final residual = 6.80305e-11, No Iterations 1
smoothSolver:  Solving for k, Initial residual = 1.26758e-06, Final residual = 4.83695e-09, No Iterations 1
ExecutionTime = 168.05 s  ExecutionStepTime = 1.08 s  ClockTime = 168 s

Time = 13054

pseudoTime: iteration 131663
Pseudo Courant No: 1
Damped pseudo Courant No: Min: 1 Mean: 1 Max: 1
Pseudo deltaT: Min: 7.73111e-09 Mean: 6.02016e-07 Max: 6.81111e-06
Solving for (rho rhoU rhoE)
  GMRES iteration: 0   Residual: 2.19367e-06 (1.93706e-06 1.18962e-06 4.42844e-19) 2.65839e-06 
  GMRES iteration: 1   Residual: 5.48891e-09 (2.26755e-09 1.52439e-09 0) 4.75144e-09 
smoothSolver:  Solving for omega, Initial residual = 1.20542e-07, Final residual = 6.8262e-11, No Iterations 1
smoothSolver:  Solving for k, Initial residual = 1.26833e-06, Final residual = 4.84912e-09, No Iterations 1
ExecutionTime = 169.12 s  ExecutionStepTime = 1.07 s  ClockTime = 169 s

Time = 13055

pseudoTime: iteration 131664
Pseudo Courant No: 1
Damped pseudo Courant No: Min: 1 Mean: 1 Max: 1
Pseudo deltaT: Min: 7.73111e-09 Mean: 6.02016e-07 Max: 6.81111e-06
Solving for (rho rhoU rhoE)
  GMRES iteration: 0   Residual: 2.1577e-06 (1.90872e-06 1.16946e-06 4.42844e-19) 2.51134e-06 
  GMRES iteration: 1   Residual: 5.45927e-09 (2.23166e-09 1.50802e-09 0) 4.72655e-09 
smoothSolver:  Solving for omega, Initial residual = 1.19205e-07, Final residual = 6.79341e-11, No Iterations 1
smoothSolver:  Solving for k, Initial residual = 1.26868e-06, Final residual = 4.84745e-09, No Iterations 1
ExecutionTime = 170.2 s  ExecutionStepTime = 1.08 s  ClockTime = 170 s

Time = 13055

pseudoTime: iteration 131665
Pseudo Courant No: 1
Damped pseudo Courant No: Min: 1 Mean: 1 Max: 1
Pseudo deltaT: Min: 7.73111e-09 Mean: 6.02017e-07 Max: 6.81111e-06
Solving for (rho rhoU rhoE)
  GMRES iteration: 0   Residual: 2.18308e-06 (1.91988e-06 1.17644e-06 4.42844e-19) 2.60027e-06 
  GMRES iteration: 1   Residual: 5.52652e-09 (2.2683e-09 1.5242e-09 0) 4.78199e-09 
smoothSolver:  Solving for omega, Initial residual = 1.19331e-07, Final residual = 6.81839e-11, No Iterations 1
smoothSolver:  Solving for k, Initial residual = 1.26929e-06, Final residual = 4.86007e-09, No Iterations 1
ExecutionTime = 171.28 s  ExecutionStepTime = 1.08 s  ClockTime = 171 s

Time = 13055

pseudoTime: iteration 131666
Pseudo Courant No: 1
Damped pseudo Courant No: Min: 1 Mean: 1 Max: 1
Pseudo deltaT: Min: 7.73111e-09 Mean: 6.02017e-07 Max: 6.81111e-06
