/*---------------------------------------------------------------------------*\
| =========                 |                                                 |
| \\      /  F ield         | OpenFOAM: The Open Source CFD Toolbox           |
|  \\    /   O peration     | Version:  v2012                                 |
|   \\  /    A nd           | Website:  www.openfoam.com                      |
|    \\/     M anipulation  |                                                 |
\*---------------------------------------------------------------------------*/
Build  : v2012 OPENFOAM=2012
Arch   : "LSB;label=32;scalar=64"
Exec   : hisa -parallel
Date   : Mar 10 2025
Time   : 22:00:36
Host   : chen-virtual-machine
PID    : 382095
I/O    : uncollated
Case   : /home/chen/compression_ramp_2caseVaMa_PrtAndBeta/foam_base/case2
nProcs : 12
Hosts  :
(
    (chen-virtual-machine 12)
)
Pstream initialized with:
    floatTransfer      : 0
    nProcsSimpleSum    : 0
    commsType          : nonBlocking
    polling iterations : 0
trapFpe: Floating point exception trapping enabled (FOAM_SIGFPE).
fileModificationChecking : Monitoring run-time modified files using timeStampMaster (fileModificationSkew 5, maxFileModificationPolls 20)
allowSystemOperations : Allowing user-supplied system call operations

// * * * * * * * * * * * * * * * * * * * * * * * * * * * * * * * * * * * * * //
Create time

--> FOAM Warning : 
    From void Foam::Time::setControls()
    in file db/Time/Time.C at line 335
    Reading "/home/chen/compression_ramp_2caseVaMa_PrtAndBeta/foam_base/case2/processor0/0/uniform/time" at line 18 to 26
    Time read from time dictionary 2000 differs from actual time 0.
    This may cause unexpected database behaviour. If you are not interested
    in preserving time state delete the time dictionary.
Create mesh for time = 0, region region0
Creating static mesh

Steady-state analysis detected

pseudoTime: tolerance = 1e-08 (1e-08 1e-08 1e-08) 1e-08 , relTol = 0 (0 0 0) 0 

Local timestepping selected

Reading thermophysical properties

Selecting thermodynamics package 
{
    type            hePsiThermo;
    mixture         pureMixture;
    transport       sutherland;
    thermo          hConst;
    equationOfState perfectGas;
    specie          specie;
    energy          sensibleInternalEnergy;
}


Viscous analysis detected

Reading field U

Creating turbulence model

Selecting turbulence model type RAS
Selecting RAS turbulence model kOmegaSST
Selecting patchDistMethod meshWave
RAS
{
    RASModel        kOmegaSST;
    turbulence      on;
    betannmodel     0;
    Main            9;
    betascalar      1;
    begin           0.1;
    printCoeffs     on;
    alphaK1         0.85;
    alphaK2         1;
    alphaOmega1     0.5;
    alphaOmega2     0.856;
    gamma1          0.555556;
    gamma2          0.44;
    beta1           0.075;
    beta2           0.0828;
    betaStar        0.09;
    a1              0.31;
    b1              1;
    c1              10;
    F3              false;
    cor             1;
    end             1;
    sca             1;
    height1         0;
    height2         0.1;
    ybegin          0.1;
    decayControl    false;
    kInf            0;
    omegaInf        0;
}


Creating flux scheme

Selecting flux scheme AUSMPlusUp

No finite volume options present
Initial pseudo Courant No: Min: 1 Mean: 1 Max: 1


Starting pseudotime iteration loop

Time = 0

pseudoTime: iteration 135501
Pseudo Courant No: 1
Damped pseudo Courant No: Min: 1 Mean: 1 Max: 1
Pseudo deltaT: Min: 7.61776e-09 Mean: 6.02984e-07 Max: 6.81111e-06
Solving for (rho rhoU rhoE)
  GMRES iteration: 0   Residual: 2.88247e-05 (2.84518e-05 1.7312e-05 4.40507e-19) 3.76262e-05 
  GMRES iteration: 1   Residual: 1.99239e-08 (8.54474e-09 5.1216e-09 0) 1.90585e-08 
smoothSolver:  Solving for omega, Initial residual = 8.10784e-07, Final residual = 1.73948e-09, No Iterations 1
smoothSolver:  Solving for k, Initial residual = 2.06048e-05, Final residual = 1.59973e-07, No Iterations 1
ExecutionTime = 0.19 s  ExecutionStepTime = 0.09 s  ClockTime = 0 s

Time = 1

pseudoTime: iteration 135502
Pseudo Courant No: 1
Damped pseudo Courant No: Min: 1 Mean: 1 Max: 1
Pseudo deltaT: Min: 7.6178e-09 Mean: 6.02985e-07 Max: 6.81111e-06
Solving for (rho rhoU rhoE)
  GMRES iteration: 0   Residual: 2.88041e-05 (2.84762e-05 1.72949e-05 4.40506e-19) 3.75939e-05 
  GMRES iteration: 1   Residual: 2.00975e-08 (8.62914e-09 5.17161e-09 0) 1.91951e-08 
smoothSolver:  Solving for omega, Initial residual = 7.92927e-07, Final residual = 1.67859e-09, No Iterations 1
smoothSolver:  Solving for k, Initial residual = 2.05562e-05, Final residual = 1.59752e-07, No Iterations 1
ExecutionTime = 0.25 s  ExecutionStepTime = 0.06 s  ClockTime = 0 s

Time = 2

pseudoTime: iteration 135503
Pseudo Courant No: 1
Damped pseudo Courant No: Min: 1 Mean: 1 Max: 1
Pseudo deltaT: Min: 7.61784e-09 Mean: 6.02985e-07 Max: 6.81111e-06
Solving for (rho rhoU rhoE)
  GMRES iteration: 0   Residual: 2.88702e-05 (2.85629e-05 1.72998e-05 4.40507e-19) 3.76527e-05 
  GMRES iteration: 1   Residual: 2.01904e-08 (8.65388e-09 5.16474e-09 0) 1.92523e-08 
smoothSolver:  Solving for omega, Initial residual = 7.4663e-07, Final residual = 1.60672e-09, No Iterations 1
smoothSolver:  Solving for k, Initial residual = 2.05147e-05, Final residual = 1.59536e-07, No Iterations 1
ExecutionTime = 0.31 s  ExecutionStepTime = 0.06 s  ClockTime = 0 s

Time = 2

pseudoTime: iteration 135504
Pseudo Courant No: 1
Damped pseudo Courant No: Min: 1 Mean: 1 Max: 1
Pseudo deltaT: Min: 7.61789e-09 Mean: 6.02985e-07 Max: 6.81111e-06
Solving for (rho rhoU rhoE)
  GMRES iteration: 0   Residual: 2.87409e-05 (2.85462e-05 1.72735e-05 4.40506e-19) 3.76839e-05 
  GMRES iteration: 1   Residual: 2.03116e-08 (8.71176e-09 5.18e-09 0) 1.93314e-08 
smoothSolver:  Solving for omega, Initial residual = 7.34735e-07, Final residual = 1.5826e-09, No Iterations 1
smoothSolver:  Solving for k, Initial residual = 2.04776e-05, Final residual = 1.59333e-07, No Iterations 1
ExecutionTime = 0.37 s  ExecutionStepTime = 0.06 s  ClockTime = 0 s

Time = 2

pseudoTime: iteration 135505
Pseudo Courant No: 1
Damped pseudo Courant No: Min: 1 Mean: 1 Max: 1
Pseudo deltaT: Min: 7.61792e-09 Mean: 6.02986e-07 Max: 6.81111e-06
Solving for (rho rhoU rhoE)
  GMRES iteration: 0   Residual: 2.8787e-05 (2.86191e-05 1.72778e-05 4.40504e-19) 3.75548e-05 
  GMRES iteration: 1   Residual: 2.03836e-08 (8.73731e-09 5.1769e-09 0) 1.93802e-08 
smoothSolver:  Solving for omega, Initial residual = 7.30907e-07, Final residual = 1.57384e-09, No Iterations 1
smoothSolver:  Solving for k, Initial residual = 2.04639e-05, Final residual = 1.59133e-07, No Iterations 1
ExecutionTime = 0.43 s  ExecutionStepTime = 0.06 s  ClockTime = 0 s

Time = 3

pseudoTime: iteration 135506
Pseudo Courant No: 1
Damped pseudo Courant No: Min: 1 Mean: 1 Max: 1
Pseudo deltaT: Min: 7.61796e-09 Mean: 6.02986e-07 Max: 6.81111e-06
Solving for (rho rhoU rhoE)
  GMRES iteration: 0   Residual: 2.87647e-05 (2.86418e-05 1.72636e-05 4.40503e-19) 3.76579e-05 
  GMRES iteration: 1   Residual: 2.05015e-08 (8.80521e-09 5.2022e-09 0) 1.94796e-08 
smoothSolver:  Solving for omega, Initial residual = 7.26682e-07, Final residual = 1.56877e-09, No Iterations 1
smoothSolver:  Solving for k, Initial residual = 2.04734e-05, Final residual = 1.58967e-07, No Iterations 1
ExecutionTime = 0.5 s  ExecutionStepTime = 0.07 s  ClockTime = 0 s

Time = 4

pseudoTime: iteration 135507
Pseudo Courant No: 1
Damped pseudo Courant No: Min: 1 Mean: 1 Max: 1
Pseudo deltaT: Min: 7.618e-09 Mean: 6.02987e-07 Max: 6.81111e-06
Solving for (rho rhoU rhoE)
  GMRES iteration: 0   Residual: 2.88292e-05 (2.87214e-05 1.72863e-05 4.40502e-19) 3.79166e-05 
  GMRES iteration: 1   Residual: 2.05949e-08 (8.84408e-09 5.20305e-09 0) 1.95599e-08 
smoothSolver:  Solving for omega, Initial residual = 7.25942e-07, Final residual = 1.56508e-09, No Iterations 1
smoothSolver:  Solving for k, Initial residual = 2.04808e-05, Final residual = 1.58854e-07, No Iterations 1
ExecutionTime = 0.56 s  ExecutionStepTime = 0.06 s  ClockTime = 1 s

Time = 4

pseudoTime: iteration 135508
Pseudo Courant No: 1
Damped pseudo Courant No: Min: 1 Mean: 1 Max: 1
Pseudo deltaT: Min: 7.61804e-09 Mean: 6.02987e-07 Max: 6.81111e-06
Solving for (rho rhoU rhoE)
  GMRES iteration: 0   Residual: 2.8782e-05 (2.8744e-05 1.73205e-05 4.40502e-19) 3.77787e-05 
  GMRES iteration: 1   Residual: 2.07092e-08 (8.90295e-09 5.22818e-09 0) 1.9645e-08 
smoothSolver:  Solving for omega, Initial residual = 7.25622e-07, Final residual = 1.56188e-09, No Iterations 1
smoothSolver:  Solving for k, Initial residual = 2.04804e-05, Final residual = 1.58721e-07, No Iterations 1
ExecutionTime = 0.62 s  ExecutionStepTime = 0.06 s  ClockTime = 1 s

Time = 4

pseudoTime: iteration 135509
Pseudo Courant No: 1
Damped pseudo Courant No: Min: 1 Mean: 1 Max: 1
Pseudo deltaT: Min: 7.61807e-09 Mean: 6.02987e-07 Max: 6.81111e-06
Solving for (rho rhoU rhoE)
  GMRES iteration: 0   Residual: 2.88934e-05 (2.88239e-05 1.73693e-05 4.40501e-19) 3.79781e-05 
  GMRES iteration: 1   Residual: 2.07793e-08 (8.93723e-09 5.23202e-09 0) 1.97059e-08 
smoothSolver:  Solving for omega, Initial residual = 7.24889e-07, Final residual = 1.559e-09, No Iterations 1
smoothSolver:  Solving for k, Initial residual = 2.04799e-05, Final residual = 1.58575e-07, No Iterations 1
ExecutionTime = 0.68 s  ExecutionStepTime = 0.06 s  ClockTime = 1 s

Time = 5

pseudoTime: iteration 135510
Pseudo Courant No: 1
Damped pseudo Courant No: Min: 1 Mean: 1 Max: 1
Pseudo deltaT: Min: 7.61811e-09 Mean: 6.02988e-07 Max: 6.81111e-06
Solving for (rho rhoU rhoE)
  GMRES iteration: 0   Residual: 2.88673e-05 (2.88657e-05 1.73618e-05 4.40499e-19) 3.79605e-05 
  GMRES iteration: 1   Residual: 2.0787e-08 (8.94513e-09 5.22269e-09 0) 1.97055e-08 
smoothSolver:  Solving for omega, Initial residual = 7.23444e-07, Final residual = 1.55603e-09, No Iterations 1
smoothSolver:  Solving for k, Initial residual = 2.04782e-05, Final residual = 1.58407e-07, No Iterations 1
ExecutionTime = 0.75 s  ExecutionStepTime = 0.07 s  ClockTime = 1 s

Time = 6

pseudoTime: iteration 135511
Pseudo Courant No: 1
Damped pseudo Courant No: Min: 1 Mean: 1 Max: 1
Pseudo deltaT: Min: 7.61814e-09 Mean: 6.02988e-07 Max: 6.81111e-06
Solving for (rho rhoU rhoE)
  GMRES iteration: 0   Residual: 2.87863e-05 (2.8857e-05 1.73969e-05 4.40498e-19) 3.80126e-05 
  GMRES iteration: 1   Residual: 2.08203e-08 (8.97765e-09 5.22035e-09 0) 1.97323e-08 
smoothSolver:  Solving for omega, Initial residual = 7.21141e-07, Final residual = 1.55305e-09, No Iterations 1
smoothSolver:  Solving for k, Initial residual = 2.04776e-05, Final residual = 1.58216e-07, No Iterations 1
ExecutionTime = 0.81 s  ExecutionStepTime = 0.06 s  ClockTime = 1 s

Time = 6

pseudoTime: iteration 135512
Pseudo Courant No: 1
Damped pseudo Courant No: Min: 1 Mean: 1 Max: 1
Pseudo deltaT: Min: 7.61818e-09 Mean: 6.02988e-07 Max: 6.81111e-06
Solving for (rho rhoU rhoE)
  GMRES iteration: 0   Residual: 2.89686e-05 (2.89707e-05 1.74277e-05 4.40497e-19) 3.81236e-05 
  GMRES iteration: 1   Residual: 2.08175e-08 (8.98347e-09 5.21846e-09 0) 1.97366e-08 
smoothSolver:  Solving for omega, Initial residual = 7.19617e-07, Final residual = 1.55006e-09, No Iterations 1
smoothSolver:  Solving for k, Initial residual = 2.04764e-05, Final residual = 1.58014e-07, No Iterations 1
ExecutionTime = 0.87 s  ExecutionStepTime = 0.06 s  ClockTime = 1 s

Time = 6

pseudoTime: iteration 135513
Pseudo Courant No: 1
Damped pseudo Courant No: Min: 1 Mean: 1 Max: 1
Pseudo deltaT: Min: 7.61821e-09 Mean: 6.02989e-07 Max: 6.81111e-06
Solving for (rho rhoU rhoE)
  GMRES iteration: 0   Residual: 2.88536e-05 (2.89613e-05 1.74445e-05 4.40495e-19) 3.80137e-05 
  GMRES iteration: 1   Residual: 2.08265e-08 (8.99144e-09 5.21042e-09 0) 1.97468e-08 
smoothSolver:  Solving for omega, Initial residual = 7.2049e-07, Final residual = 1.54671e-09, No Iterations 1
smoothSolver:  Solving for k, Initial residual = 2.04738e-05, Final residual = 1.57804e-07, No Iterations 1
ExecutionTime = 0.94 s  ExecutionStepTime = 0.07 s  ClockTime = 1 s

Time = 7

pseudoTime: iteration 135514
Pseudo Courant No: 1
Damped pseudo Courant No: Min: 1 Mean: 1 Max: 1
Pseudo deltaT: Min: 7.61824e-09 Mean: 6.02989e-07 Max: 6.81111e-06
Solving for (rho rhoU rhoE)
  GMRES iteration: 0   Residual: 2.89208e-05 (2.90115e-05 1.7481e-05 4.40494e-19) 3.82081e-05 
  GMRES iteration: 1   Residual: 2.08109e-08 (9.00838e-09 5.2151e-09 0) 1.97547e-08 
smoothSolver:  Solving for omega, Initial residual = 7.19433e-07, Final residual = 1.54345e-09, No Iterations 1
smoothSolver:  Solving for k, Initial residual = 2.04703e-05, Final residual = 1.57588e-07, No Iterations 1
ExecutionTime = 1 s  ExecutionStepTime = 0.06 s  ClockTime = 1 s

Time = 8

pseudoTime: iteration 135515
Pseudo Courant No: 1
Damped pseudo Courant No: Min: 1 Mean: 1 Max: 1
Pseudo deltaT: Min: 7.61827e-09 Mean: 6.02989e-07 Max: 6.81111e-06
Solving for (rho rhoU rhoE)
  GMRES iteration: 0   Residual: 2.90129e-05 (2.91055e-05 1.7573e-05 4.40493e-19) 3.83343e-05 
  GMRES iteration: 1   Residual: 2.07805e-08 (9.00155e-09 5.18989e-09 0) 1.97473e-08 
smoothSolver:  Solving for omega, Initial residual = 7.23482e-07, Final residual = 1.54002e-09, No Iterations 1
smoothSolver:  Solving for k, Initial residual = 2.04647e-05, Final residual = 1.57353e-07, No Iterations 1
ExecutionTime = 1.06 s  ExecutionStepTime = 0.06 s  ClockTime = 1 s

Time = 8

pseudoTime: iteration 135516
Pseudo Courant No: 1
Damped pseudo Courant No: Min: 1 Mean: 1 Max: 1
Pseudo deltaT: Min: 7.6183e-09 Mean: 6.0299e-07 Max: 6.81111e-06
Solving for (rho rhoU rhoE)
  GMRES iteration: 0   Residual: 2.89392e-05 (2.9071e-05 1.75862e-05 4.40491e-19) 3.84949e-05 
  GMRES iteration: 1   Residual: 2.07485e-08 (9.01508e-09 5.17057e-09 0) 1.97276e-08 
smoothSolver:  Solving for omega, Initial residual = 7.20941e-07, Final residual = 1.53627e-09, No Iterations 1
smoothSolver:  Solving for k, Initial residual = 2.04575e-05, Final residual = 1.57094e-07, No Iterations 1
ExecutionTime = 1.12 s  ExecutionStepTime = 0.06 s  ClockTime = 1 s

Time = 8

pseudoTime: iteration 135517
Pseudo Courant No: 1
Damped pseudo Courant No: Min: 1 Mean: 1 Max: 1
Pseudo deltaT: Min: 7.61833e-09 Mean: 6.0299e-07 Max: 6.81111e-06
Solving for (rho rhoU rhoE)
  GMRES iteration: 0   Residual: 2.90954e-05 (2.91686e-05 1.76182e-05 4.4049e-19) 3.83629e-05 
  GMRES iteration: 1   Residual: 2.06564e-08 (8.9802e-09 5.13525e-09 0) 1.96369e-08 
smoothSolver:  Solving for omega, Initial residual = 7.20613e-07, Final residual = 1.53338e-09, No Iterations 1
smoothSolver:  Solving for k, Initial residual = 2.04489e-05, Final residual = 1.56819e-07, No Iterations 1
ExecutionTime = 1.2 s  ExecutionStepTime = 0.08 s  ClockTime = 1 s

Time = 9

pseudoTime: iteration 135518
Pseudo Courant No: 1
Damped pseudo Courant No: Min: 1 Mean: 1 Max: 1
Pseudo deltaT: Min: 7.61836e-09 Mean: 6.0299e-07 Max: 6.81111e-06
Solving for (rho rhoU rhoE)
  GMRES iteration: 0   Residual: 2.91042e-05 (2.91795e-05 1.76653e-05 4.40489e-19) 3.8508e-05 
  GMRES iteration: 1   Residual: 2.06642e-08 (8.99064e-09 5.10681e-09 0) 1.96375e-08 
smoothSolver:  Solving for omega, Initial residual = 7.20884e-07, Final residual = 1.53049e-09, No Iterations 1
smoothSolver:  Solving for k, Initial residual = 2.04399e-05, Final residual = 1.56541e-07, No Iterations 1
ExecutionTime = 1.26 s  ExecutionStepTime = 0.06 s  ClockTime = 1 s

Time = 10

pseudoTime: iteration 135519
Pseudo Courant No: 1
Damped pseudo Courant No: Min: 1 Mean: 1 Max: 1
Pseudo deltaT: Min: 7.61838e-09 Mean: 6.02991e-07 Max: 6.81111e-06
Solving for (rho rhoU rhoE)
  GMRES iteration: 0   Residual: 2.89018e-05 (2.90996e-05 1.76222e-05 4.40487e-19) 3.82982e-05 
  GMRES iteration: 1   Residual: 2.0646e-08 (8.99624e-09 5.097e-09 0) 1.96086e-08 
smoothSolver:  Solving for omega, Initial residual = 7.19489e-07, Final residual = 1.5274e-09, No Iterations 1
smoothSolver:  Solving for k, Initial residual = 2.04318e-05, Final residual = 1.56262e-07, No Iterations 1
ExecutionTime = 1.32 s  ExecutionStepTime = 0.06 s  ClockTime = 1 s

Time = 10

pseudoTime: iteration 135520
Pseudo Courant No: 1
Damped pseudo Courant No: Min: 1 Mean: 1 Max: 1
Pseudo deltaT: Min: 7.61841e-09 Mean: 6.02991e-07 Max: 6.81111e-06
Solving for (rho rhoU rhoE)
  GMRES iteration: 0   Residual: 2.89401e-05 (2.91324e-05 1.76683e-05 4.40486e-19) 3.84098e-05 
  GMRES iteration: 1   Residual: 2.06503e-08 (9.00788e-09 5.0866e-09 0) 1.96031e-08 
smoothSolver:  Solving for omega, Initial residual = 7.18963e-07, Final residual = 1.52458e-09, No Iterations 1
smoothSolver:  Solving for k, Initial residual = 2.04264e-05, Final residual = 1.55991e-07, No Iterations 1
ExecutionTime = 1.38 s  ExecutionStepTime = 0.06 s  ClockTime = 1 s

Time = 10

pseudoTime: iteration 135521
Pseudo Courant No: 1
Damped pseudo Courant No: Min: 1 Mean: 1 Max: 1
Pseudo deltaT: Min: 7.61844e-09 Mean: 6.02991e-07 Max: 6.81111e-06
Solving for (rho rhoU rhoE)
  GMRES iteration: 0   Residual: 2.90318e-05 (2.92033e-05 1.77362e-05 4.40485e-19) 3.85971e-05 
  GMRES iteration: 1   Residual: 2.06809e-08 (9.01757e-09 5.08556e-09 0) 1.96209e-08 
smoothSolver:  Solving for omega, Initial residual = 7.19272e-07, Final residual = 1.52183e-09, No Iterations 1
smoothSolver:  Solving for k, Initial residual = 2.04223e-05, Final residual = 1.55728e-07, No Iterations 1
ExecutionTime = 1.45 s  ExecutionStepTime = 0.07 s  ClockTime = 1 s

Time = 11

pseudoTime: iteration 135522
Pseudo Courant No: 1
Damped pseudo Courant No: Min: 1 Mean: 1 Max: 1
Pseudo deltaT: Min: 7.61846e-09 Mean: 6.02992e-07 Max: 6.81111e-06
Solving for (rho rhoU rhoE)
  GMRES iteration: 0   Residual: 2.89497e-05 (2.91732e-05 1.77126e-05 4.40483e-19) 3.8484e-05 
  GMRES iteration: 1   Residual: 2.06947e-08 (9.03573e-09 5.0931e-09 0) 1.96183e-08 
smoothSolver:  Solving for omega, Initial residual = 7.18554e-07, Final residual = 1.51897e-09, No Iterations 1
smoothSolver:  Solving for k, Initial residual = 2.04193e-05, Final residual = 1.55469e-07, No Iterations 1
ExecutionTime = 1.51 s  ExecutionStepTime = 0.06 s  ClockTime = 1 s

Time = 12

pseudoTime: iteration 135523
Pseudo Courant No: 1
Damped pseudo Courant No: Min: 1 Mean: 1 Max: 1
Pseudo deltaT: Min: 7.61849e-09 Mean: 6.02992e-07 Max: 6.81111e-06
Solving for (rho rhoU rhoE)
  GMRES iteration: 0   Residual: 2.90236e-05 (2.91999e-05 1.77657e-05 4.40482e-19) 3.85799e-05 
  GMRES iteration: 1   Residual: 2.07423e-08 (9.05753e-09 5.08776e-09 0) 1.96475e-08 
smoothSolver:  Solving for omega, Initial residual = 7.20007e-07, Final residual = 1.51614e-09, No Iterations 1
smoothSolver:  Solving for k, Initial residual = 2.04179e-05, Final residual = 1.55212e-07, No Iterations 1
ExecutionTime = 1.57 s  ExecutionStepTime = 0.06 s  ClockTime = 2 s

Time = 12

pseudoTime: iteration 135524
Pseudo Courant No: 1
Damped pseudo Courant No: Min: 1 Mean: 1 Max: 1
Pseudo deltaT: Min: 7.61851e-09 Mean: 6.02992e-07 Max: 6.81111e-06
Solving for (rho rhoU rhoE)
  GMRES iteration: 0   Residual: 2.89918e-05 (2.92177e-05 1.7756e-05 4.40481e-19) 3.8571e-05 
  GMRES iteration: 1   Residual: 2.07487e-08 (9.06689e-09 5.08803e-09 0) 1.96352e-08 
smoothSolver:  Solving for omega, Initial residual = 7.20871e-07, Final residual = 1.51341e-09, No Iterations 1
smoothSolver:  Solving for k, Initial residual = 2.0416e-05, Final residual = 1.54962e-07, No Iterations 1
ExecutionTime = 1.64 s  ExecutionStepTime = 0.07 s  ClockTime = 2 s

Time = 12

pseudoTime: iteration 135525
Pseudo Courant No: 1
Damped pseudo Courant No: Min: 1 Mean: 1 Max: 1
Pseudo deltaT: Min: 7.61853e-09 Mean: 6.02993e-07 Max: 6.81111e-06
Solving for (rho rhoU rhoE)
  GMRES iteration: 0   Residual: 2.89367e-05 (2.91974e-05 1.77857e-05 4.40479e-19) 3.87359e-05 
  GMRES iteration: 1   Residual: 2.07453e-08 (9.06688e-09 5.06988e-09 0) 1.96186e-08 
smoothSolver:  Solving for omega, Initial residual = 7.22301e-07, Final residual = 1.51056e-09, No Iterations 1
smoothSolver:  Solving for k, Initial residual = 2.04137e-05, Final residual = 1.54715e-07, No Iterations 1
ExecutionTime = 1.7 s  ExecutionStepTime = 0.06 s  ClockTime = 2 s

Time = 13

pseudoTime: iteration 135526
Pseudo Courant No: 1
Damped pseudo Courant No: Min: 1 Mean: 1 Max: 1
Pseudo deltaT: Min: 7.61855e-09 Mean: 6.02993e-07 Max: 6.81111e-06
Solving for (rho rhoU rhoE)
  GMRES iteration: 0   Residual: 2.89466e-05 (2.92051e-05 1.78033e-05 4.40478e-19) 3.84642e-05 
  GMRES iteration: 1   Residual: 2.07342e-08 (9.06705e-09 5.0556e-09 0) 1.95741e-08 
smoothSolver:  Solving for omega, Initial residual = 7.19362e-07, Final residual = 1.50794e-09, No Iterations 1
smoothSolver:  Solving for k, Initial residual = 2.04126e-05, Final residual = 1.54473e-07, No Iterations 1
ExecutionTime = 1.76 s  ExecutionStepTime = 0.06 s  ClockTime = 2 s

Time = 14

pseudoTime: iteration 135527
Pseudo Courant No: 1
Damped pseudo Courant No: Min: 1 Mean: 1 Max: 1
Pseudo deltaT: Min: 7.61858e-09 Mean: 6.02993e-07 Max: 6.81111e-06
Solving for (rho rhoU rhoE)
  GMRES iteration: 0   Residual: 2.8967e-05 (2.92252e-05 1.78261e-05 4.40476e-19) 3.86608e-05 
  GMRES iteration: 1   Residual: 2.07213e-08 (9.06022e-09 5.04509e-09 0) 1.95512e-08 
smoothSolver:  Solving for omega, Initial residual = 7.19178e-07, Final residual = 1.50551e-09, No Iterations 1
smoothSolver:  Solving for k, Initial residual = 2.04126e-05, Final residual = 1.54245e-07, No Iterations 1
ExecutionTime = 1.82 s  ExecutionStepTime = 0.06 s  ClockTime = 2 s

Time = 14

pseudoTime: iteration 135528
Pseudo Courant No: 1
Damped pseudo Courant No: Min: 1 Mean: 1 Max: 1
Pseudo deltaT: Min: 7.6186e-09 Mean: 6.02994e-07 Max: 6.81111e-06
Solving for (rho rhoU rhoE)
  GMRES iteration: 0   Residual: 2.89323e-05 (2.923e-05 1.7865e-05 4.40475e-19) 3.86492e-05 
  GMRES iteration: 1   Residual: 2.07507e-08 (9.0757e-09 5.0523e-09 0) 1.9558e-08 
smoothSolver:  Solving for omega, Initial residual = 7.18709e-07, Final residual = 1.50311e-09, No Iterations 1
smoothSolver:  Solving for k, Initial residual = 2.04174e-05, Final residual = 1.54032e-07, No Iterations 1
ExecutionTime = 1.88 s  ExecutionStepTime = 0.06 s  ClockTime = 2 s

Time = 14

pseudoTime: iteration 135529
Pseudo Courant No: 1
Damped pseudo Courant No: Min: 1 Mean: 1 Max: 1
Pseudo deltaT: Min: 7.61862e-09 Mean: 6.02994e-07 Max: 6.81111e-06
Solving for (rho rhoU rhoE)
  GMRES iteration: 0   Residual: 2.8893e-05 (2.92335e-05 1.7889e-05 4.40472e-19) 3.85505e-05 
  GMRES iteration: 1   Residual: 2.07619e-08 (9.08847e-09 5.05761e-09 0) 1.95522e-08 
smoothSolver:  Solving for omega, Initial residual = 7.18341e-07, Final residual = 1.50098e-09, No Iterations 1
smoothSolver:  Solving for k, Initial residual = 2.04227e-05, Final residual = 1.53827e-07, No Iterations 1
ExecutionTime = 1.95 s  ExecutionStepTime = 0.07 s  ClockTime = 2 s

Time = 15

pseudoTime: iteration 135530
Pseudo Courant No: 1
Damped pseudo Courant No: Min: 1 Mean: 1 Max: 1
Pseudo deltaT: Min: 7.61864e-09 Mean: 6.02994e-07 Max: 6.81111e-06
Solving for (rho rhoU rhoE)
  GMRES iteration: 0   Residual: 2.89686e-05 (2.92587e-05 1.79105e-05 4.4047e-19) 3.88888e-05 
  GMRES iteration: 1   Residual: 2.08308e-08 (9.1377e-09 5.07114e-09 0) 1.96259e-08 
smoothSolver:  Solving for omega, Initial residual = 7.20053e-07, Final residual = 1.4991e-09, No Iterations 1
smoothSolver:  Solving for k, Initial residual = 2.0429e-05, Final residual = 1.53629e-07, No Iterations 1
ExecutionTime = 2.01 s  ExecutionStepTime = 0.06 s  ClockTime = 2 s

Time = 16

pseudoTime: iteration 135531
Pseudo Courant No: 1
Damped pseudo Courant No: Min: 1 Mean: 1 Max: 1
Pseudo deltaT: Min: 7.61866e-09 Mean: 6.02995e-07 Max: 6.81111e-06
Solving for (rho rhoU rhoE)
  GMRES iteration: 0   Residual: 2.89604e-05 (2.92698e-05 1.79081e-05 4.40468e-19) 3.85767e-05 
  GMRES iteration: 1   Residual: 2.0781e-08 (9.11526e-09 5.07542e-09 0) 1.95663e-08 
smoothSolver:  Solving for omega, Initial residual = 7.21065e-07, Final residual = 1.4976e-09, No Iterations 1
smoothSolver:  Solving for k, Initial residual = 2.04393e-05, Final residual = 1.53441e-07, No Iterations 1
ExecutionTime = 2.08 s  ExecutionStepTime = 0.07 s  ClockTime = 2 s

Time = 16

pseudoTime: iteration 135532
Pseudo Courant No: 1
Damped pseudo Courant No: Min: 1 Mean: 1 Max: 1
Pseudo deltaT: Min: 7.61868e-09 Mean: 6.02995e-07 Max: 6.81111e-06
Solving for (rho rhoU rhoE)
  GMRES iteration: 0   Residual: 2.88412e-05 (2.9249e-05 1.79164e-05 4.40466e-19) 3.85913e-05 
  GMRES iteration: 1   Residual: 2.07971e-08 (9.13372e-09 5.08707e-09 0) 1.95803e-08 
smoothSolver:  Solving for omega, Initial residual = 7.18409e-07, Final residual = 1.49639e-09, No Iterations 1
smoothSolver:  Solving for k, Initial residual = 2.04496e-05, Final residual = 1.53264e-07, No Iterations 1
ExecutionTime = 2.14 s  ExecutionStepTime = 0.06 s  ClockTime = 2 s

Time = 16

pseudoTime: iteration 135533
Pseudo Courant No: 1
Damped pseudo Courant No: Min: 1 Mean: 1 Max: 1
Pseudo deltaT: Min: 7.6187e-09 Mean: 6.02995e-07 Max: 6.81111e-06
Solving for (rho rhoU rhoE)
  GMRES iteration: 0   Residual: 2.89474e-05 (2.93216e-05 1.79612e-05 4.40464e-19) 3.86502e-05 
  GMRES iteration: 1   Residual: 2.07783e-08 (9.12151e-09 5.09463e-09 0) 1.95695e-08 
smoothSolver:  Solving for omega, Initial residual = 7.19737e-07, Final residual = 1.49532e-09, No Iterations 1
smoothSolver:  Solving for k, Initial residual = 2.04613e-05, Final residual = 1.53097e-07, No Iterations 1
ExecutionTime = 2.2 s  ExecutionStepTime = 0.06 s  ClockTime = 2 s

Time = 17

pseudoTime: iteration 135534
Pseudo Courant No: 1
Damped pseudo Courant No: Min: 1 Mean: 1 Max: 1
Pseudo deltaT: Min: 7.61872e-09 Mean: 6.02996e-07 Max: 6.81111e-06
Solving for (rho rhoU rhoE)
  GMRES iteration: 0   Residual: 2.88453e-05 (2.92783e-05 1.79413e-05 4.40462e-19) 3.85945e-05 
  GMRES iteration: 1   Residual: 2.07637e-08 (9.14403e-09 5.11091e-09 0) 1.95673e-08 
smoothSolver:  Solving for omega, Initial residual = 7.1651e-07, Final residual = 1.49408e-09, No Iterations 1
smoothSolver:  Solving for k, Initial residual = 2.04641e-05, Final residual = 1.52923e-07, No Iterations 1
ExecutionTime = 2.26 s  ExecutionStepTime = 0.06 s  ClockTime = 2 s

Time = 18

pseudoTime: iteration 135535
Pseudo Courant No: 1
Damped pseudo Courant No: Min: 1 Mean: 1 Max: 1
Pseudo deltaT: Min: 7.61874e-09 Mean: 6.02996e-07 Max: 6.81111e-06
Solving for (rho rhoU rhoE)
  GMRES iteration: 0   Residual: 2.89587e-05 (2.93588e-05 1.7974e-05 4.4046e-19) 3.85109e-05 
  GMRES iteration: 1   Residual: 2.06867e-08 (9.1182e-09 5.1041e-09 0) 1.95126e-08 
smoothSolver:  Solving for omega, Initial residual = 7.17602e-07, Final residual = 1.49287e-09, No Iterations 1
smoothSolver:  Solving for k, Initial residual = 2.04605e-05, Final residual = 1.52757e-07, No Iterations 1
ExecutionTime = 2.32 s  ExecutionStepTime = 0.06 s  ClockTime = 2 s

Time = 18

pseudoTime: iteration 135536
Pseudo Courant No: 1
Damped pseudo Courant No: Min: 1 Mean: 1 Max: 1
Pseudo deltaT: Min: 7.61876e-09 Mean: 6.02997e-07 Max: 6.81111e-06
Solving for (rho rhoU rhoE)
  GMRES iteration: 0   Residual: 2.90228e-05 (2.93882e-05 1.79838e-05 4.40458e-19) 3.87153e-05 
  GMRES iteration: 1   Residual: 2.07045e-08 (9.13913e-09 5.11746e-09 0) 1.95391e-08 
smoothSolver:  Solving for omega, Initial residual = 7.17831e-07, Final residual = 1.49164e-09, No Iterations 1
smoothSolver:  Solving for k, Initial residual = 2.04574e-05, Final residual = 1.52605e-07, No Iterations 1
ExecutionTime = 2.38 s  ExecutionStepTime = 0.06 s  ClockTime = 2 s

Time = 18

pseudoTime: iteration 135537
Pseudo Courant No: 1
Damped pseudo Courant No: Min: 1 Mean: 1 Max: 1
Pseudo deltaT: Min: 7.61877e-09 Mean: 6.02997e-07 Max: 6.81111e-06
Solving for (rho rhoU rhoE)
  GMRES iteration: 0   Residual: 2.89651e-05 (2.93901e-05 1.7974e-05 4.40456e-19) 3.8753e-05 
  GMRES iteration: 1   Residual: 2.06866e-08 (9.14849e-09 5.13635e-09 0) 1.95426e-08 
smoothSolver:  Solving for omega, Initial residual = 7.18668e-07, Final residual = 1.49042e-09, No Iterations 1
smoothSolver:  Solving for k, Initial residual = 2.04524e-05, Final residual = 1.52462e-07, No Iterations 1
ExecutionTime = 2.45 s  ExecutionStepTime = 0.07 s  ClockTime = 2 s

Time = 19

pseudoTime: iteration 135538
Pseudo Courant No: 1
Damped pseudo Courant No: Min: 1 Mean: 1 Max: 1
Pseudo deltaT: Min: 7.61879e-09 Mean: 6.02997e-07 Max: 6.81111e-06
Solving for (rho rhoU rhoE)
  GMRES iteration: 0   Residual: 2.89269e-05 (2.94302e-05 1.79843e-05 4.40454e-19) 3.8643e-05 
  GMRES iteration: 1   Residual: 2.06877e-08 (9.17462e-09 5.15597e-09 0) 1.95541e-08 
smoothSolver:  Solving for omega, Initial residual = 7.19637e-07, Final residual = 1.48938e-09, No Iterations 1
smoothSolver:  Solving for k, Initial residual = 2.04516e-05, Final residual = 1.52328e-07, No Iterations 1
ExecutionTime = 2.51 s  ExecutionStepTime = 0.06 s  ClockTime = 3 s

Time = 20

pseudoTime: iteration 135539
Pseudo Courant No: 1
Damped pseudo Courant No: Min: 1 Mean: 1 Max: 1
Pseudo deltaT: Min: 7.61881e-09 Mean: 6.02998e-07 Max: 6.81111e-06
Solving for (rho rhoU rhoE)
  GMRES iteration: 0   Residual: 2.89919e-05 (2.94631e-05 1.79799e-05 4.40452e-19) 3.87151e-05 
  GMRES iteration: 1   Residual: 2.0694e-08 (9.20782e-09 5.17199e-09 0) 1.95861e-08 
smoothSolver:  Solving for omega, Initial residual = 7.1679e-07, Final residual = 1.48878e-09, No Iterations 1
smoothSolver:  Solving for k, Initial residual = 2.04502e-05, Final residual = 1.52212e-07, No Iterations 1
ExecutionTime = 2.58 s  ExecutionStepTime = 0.07 s  ClockTime = 3 s

Time = 20

pseudoTime: iteration 135540
Pseudo Courant No: 1
Damped pseudo Courant No: Min: 1 Mean: 1 Max: 1
Pseudo deltaT: Min: 7.61883e-09 Mean: 6.02998e-07 Max: 6.81111e-06
Solving for (rho rhoU rhoE)
  GMRES iteration: 0   Residual: 2.89701e-05 (2.94514e-05 1.79774e-05 4.4045e-19) 3.87128e-05 
  GMRES iteration: 1   Residual: 2.06549e-08 (9.22149e-09 5.18986e-09 0) 1.95864e-08 
smoothSolver:  Solving for omega, Initial residual = 7.15578e-07, Final residual = 1.48851e-09, No Iterations 1
smoothSolver:  Solving for k, Initial residual = 2.0447e-05, Final residual = 1.52115e-07, No Iterations 1
ExecutionTime = 2.64 s  ExecutionStepTime = 0.06 s  ClockTime = 3 s

Time = 20

pseudoTime: iteration 135541
Pseudo Courant No: 1
Damped pseudo Courant No: Min: 1 Mean: 1 Max: 1
Pseudo deltaT: Min: 7.61885e-09 Mean: 6.02998e-07 Max: 6.81111e-06
Solving for (rho rhoU rhoE)
  GMRES iteration: 0   Residual: 2.89677e-05 (2.94735e-05 1.79623e-05 4.40448e-19) 3.86853e-05 
  GMRES iteration: 1   Residual: 2.05955e-08 (9.21027e-09 5.19059e-09 0) 1.95583e-08 
smoothSolver:  Solving for omega, Initial residual = 7.16661e-07, Final residual = 1.48861e-09, No Iterations 1
smoothSolver:  Solving for k, Initial residual = 2.04467e-05, Final residual = 1.52034e-07, No Iterations 1
ExecutionTime = 2.7 s  ExecutionStepTime = 0.06 s  ClockTime = 3 s

Time = 21

pseudoTime: iteration 135542
Pseudo Courant No: 1
Damped pseudo Courant No: Min: 1 Mean: 1 Max: 1
Pseudo deltaT: Min: 7.61887e-09 Mean: 6.02999e-07 Max: 6.81111e-06
Solving for (rho rhoU rhoE)
  GMRES iteration: 0   Residual: 2.89303e-05 (2.94556e-05 1.79648e-05 4.40446e-19) 3.86147e-05 
  GMRES iteration: 1   Residual: 2.05474e-08 (9.21496e-09 5.19887e-09 0) 1.95389e-08 
smoothSolver:  Solving for omega, Initial residual = 7.14864e-07, Final residual = 1.48888e-09, No Iterations 1
smoothSolver:  Solving for k, Initial residual = 2.04461e-05, Final residual = 1.51973e-07, No Iterations 1
ExecutionTime = 2.77 s  ExecutionStepTime = 0.07 s  ClockTime = 3 s

Time = 22

pseudoTime: iteration 135543
Pseudo Courant No: 1
Damped pseudo Courant No: Min: 1 Mean: 1 Max: 1
Pseudo deltaT: Min: 7.61888e-09 Mean: 6.02999e-07 Max: 6.81111e-06
Solving for (rho rhoU rhoE)
  GMRES iteration: 0   Residual: 2.90424e-05 (2.95162e-05 1.79763e-05 4.40444e-19) 3.86518e-05 
  GMRES iteration: 1   Residual: 2.0479e-08 (9.19571e-09 5.19618e-09 0) 1.94984e-08 
smoothSolver:  Solving for omega, Initial residual = 7.15847e-07, Final residual = 1.48951e-09, No Iterations 1
smoothSolver:  Solving for k, Initial residual = 2.04503e-05, Final residual = 1.51943e-07, No Iterations 1
ExecutionTime = 2.83 s  ExecutionStepTime = 0.06 s  ClockTime = 3 s

Time = 22

pseudoTime: iteration 135544
Pseudo Courant No: 1
Damped pseudo Courant No: Min: 1 Mean: 1 Max: 1
Pseudo deltaT: Min: 7.6189e-09 Mean: 6.02999e-07 Max: 6.81111e-06
Solving for (rho rhoU rhoE)
  GMRES iteration: 0   Residual: 2.90402e-05 (2.95224e-05 1.79869e-05 4.40442e-19) 3.8847e-05 
  GMRES iteration: 1   Residual: 2.04104e-08 (9.18076e-09 5.18366e-09 0) 1.94604e-08 
smoothSolver:  Solving for omega, Initial residual = 7.16094e-07, Final residual = 1.49034e-09, No Iterations 1
smoothSolver:  Solving for k, Initial residual = 2.04532e-05, Final residual = 1.51923e-07, No Iterations 1
ExecutionTime = 2.89 s  ExecutionStepTime = 0.06 s  ClockTime = 3 s

Time = 22

pseudoTime: iteration 135545
Pseudo Courant No: 1
Damped pseudo Courant No: Min: 1 Mean: 1 Max: 1
Pseudo deltaT: Min: 7.61892e-09 Mean: 6.03e-07 Max: 6.81111e-06
Solving for (rho rhoU rhoE)
  GMRES iteration: 0   Residual: 2.89999e-05 (2.9562e-05 1.79974e-05 4.4044e-19) 3.88363e-05 
  GMRES iteration: 1   Residual: 2.03107e-08 (9.14669e-09 5.16599e-09 0) 1.93859e-08 
smoothSolver:  Solving for omega, Initial residual = 7.14881e-07, Final residual = 1.49113e-09, No Iterations 1
smoothSolver:  Solving for k, Initial residual = 2.04525e-05, Final residual = 1.51908e-07, No Iterations 1
ExecutionTime = 2.95 s  ExecutionStepTime = 0.06 s  ClockTime = 3 s

Time = 23

pseudoTime: iteration 135546
Pseudo Courant No: 1
Damped pseudo Courant No: Min: 1 Mean: 1 Max: 1
Pseudo deltaT: Min: 7.61894e-09 Mean: 6.03e-07 Max: 6.81111e-06
Solving for (rho rhoU rhoE)
  GMRES iteration: 0   Residual: 2.90373e-05 (2.95664e-05 1.79905e-05 4.40438e-19) 3.90049e-05 
  GMRES iteration: 1   Residual: 2.02326e-08 (9.13245e-09 5.16029e-09 0) 1.93361e-08 
smoothSolver:  Solving for omega, Initial residual = 7.14951e-07, Final residual = 1.49255e-09, No Iterations 1
smoothSolver:  Solving for k, Initial residual = 2.0449e-05, Final residual = 1.5189e-07, No Iterations 1
ExecutionTime = 3.02 s  ExecutionStepTime = 0.07 s  ClockTime = 3 s

Time = 24

pseudoTime: iteration 135547
Pseudo Courant No: 1
Damped pseudo Courant No: Min: 1 Mean: 1 Max: 1
Pseudo deltaT: Min: 7.61896e-09 Mean: 6.03e-07 Max: 6.81111e-06
Solving for (rho rhoU rhoE)
  GMRES iteration: 0   Residual: 2.90968e-05 (2.95979e-05 1.80202e-05 4.40437e-19) 3.90132e-05 
  GMRES iteration: 1   Residual: 2.01415e-08 (9.09871e-09 5.14146e-09 0) 1.9269e-08 
smoothSolver:  Solving for omega, Initial residual = 7.14551e-07, Final residual = 1.49364e-09, No Iterations 1
smoothSolver:  Solving for k, Initial residual = 2.04462e-05, Final residual = 1.5186e-07, No Iterations 1
ExecutionTime = 3.08 s  ExecutionStepTime = 0.06 s  ClockTime = 3 s

Time = 24

pseudoTime: iteration 135548
Pseudo Courant No: 1
Damped pseudo Courant No: Min: 1 Mean: 1 Max: 1
Pseudo deltaT: Min: 7.61897e-09 Mean: 6.03001e-07 Max: 6.81111e-06
Solving for (rho rhoU rhoE)
  GMRES iteration: 0   Residual: 2.89697e-05 (2.95662e-05 1.79918e-05 4.40435e-19) 3.87634e-05 
  GMRES iteration: 1   Residual: 2.00643e-08 (9.07944e-09 5.13733e-09 0) 1.92045e-08 
smoothSolver:  Solving for omega, Initial residual = 7.12836e-07, Final residual = 1.4944e-09, No Iterations 1
smoothSolver:  Solving for k, Initial residual = 2.04422e-05, Final residual = 1.51809e-07, No Iterations 1
ExecutionTime = 3.14 s  ExecutionStepTime = 0.06 s  ClockTime = 3 s

Time = 24

pseudoTime: iteration 135549
Pseudo Courant No: 1
Damped pseudo Courant No: Min: 1 Mean: 1 Max: 1
Pseudo deltaT: Min: 7.61899e-09 Mean: 6.03001e-07 Max: 6.81111e-06
Solving for (rho rhoU rhoE)
  GMRES iteration: 0   Residual: 2.90328e-05 (2.96221e-05 1.80065e-05 4.40433e-19) 3.9024e-05 
  GMRES iteration: 1   Residual: 1.99612e-08 (9.04212e-09 5.12321e-09 0) 1.91312e-08 
smoothSolver:  Solving for omega, Initial residual = 7.13553e-07, Final residual = 1.49485e-09, No Iterations 1
smoothSolver:  Solving for k, Initial residual = 2.04371e-05, Final residual = 1.51731e-07, No Iterations 1
ExecutionTime = 3.21 s  ExecutionStepTime = 0.07 s  ClockTime = 3 s

Time = 25

pseudoTime: iteration 135550
Pseudo Courant No: 1
Damped pseudo Courant No: Min: 1 Mean: 1 Max: 1
Pseudo deltaT: Min: 7.61901e-09 Mean: 6.03002e-07 Max: 6.81111e-06
Solving for (rho rhoU rhoE)
  GMRES iteration: 0   Residual: 2.90709e-05 (2.96594e-05 1.80437e-05 4.40432e-19) 3.91166e-05 
  GMRES iteration: 1   Residual: 1.98868e-08 (9.01681e-09 5.10224e-09 0) 1.90652e-08 
smoothSolver:  Solving for omega, Initial residual = 7.1247e-07, Final residual = 1.49468e-09, No Iterations 1
smoothSolver:  Solving for k, Initial residual = 2.04311e-05, Final residual = 1.51629e-07, No Iterations 1
ExecutionTime = 3.27 s  ExecutionStepTime = 0.06 s  ClockTime = 3 s

Time = 26

pseudoTime: iteration 135551
Pseudo Courant No: 1
Damped pseudo Courant No: Min: 1 Mean: 1 Max: 1
Pseudo deltaT: Min: 7.61903e-09 Mean: 6.03002e-07 Max: 6.81111e-06
Solving for (rho rhoU rhoE)
  GMRES iteration: 0   Residual: 2.90218e-05 (2.96827e-05 1.80409e-05 4.4043e-19) 3.90201e-05 
  GMRES iteration: 1   Residual: 1.97347e-08 (8.95222e-09 5.08324e-09 0) 1.89331e-08 
smoothSolver:  Solving for omega, Initial residual = 7.12313e-07, Final residual = 1.49398e-09, No Iterations 1
smoothSolver:  Solving for k, Initial residual = 2.04226e-05, Final residual = 1.51501e-07, No Iterations 1
ExecutionTime = 3.33 s  ExecutionStepTime = 0.06 s  ClockTime = 3 s

Time = 26

pseudoTime: iteration 135552
Pseudo Courant No: 1
Damped pseudo Courant No: Min: 1 Mean: 1 Max: 1
Pseudo deltaT: Min: 7.61905e-09 Mean: 6.03002e-07 Max: 6.81111e-06
Solving for (rho rhoU rhoE)
  GMRES iteration: 0   Residual: 2.90374e-05 (2.97132e-05 1.80545e-05 4.40427e-19) 3.90912e-05 
  GMRES iteration: 1   Residual: 1.96469e-08 (8.92098e-09 5.06324e-09 0) 1.88473e-08 
smoothSolver:  Solving for omega, Initial residual = 7.10321e-07, Final residual = 1.49283e-09, No Iterations 1
smoothSolver:  Solving for k, Initial residual = 2.0418e-05, Final residual = 1.51346e-07, No Iterations 1
ExecutionTime = 3.39 s  ExecutionStepTime = 0.06 s  ClockTime = 3 s

Time = 26

pseudoTime: iteration 135553
Pseudo Courant No: 1
Damped pseudo Courant No: Min: 1 Mean: 1 Max: 1
Pseudo deltaT: Min: 7.61907e-09 Mean: 6.03003e-07 Max: 6.81111e-06
Solving for (rho rhoU rhoE)
  GMRES iteration: 0   Residual: 2.90288e-05 (2.97432e-05 1.80691e-05 4.40424e-19) 3.90535e-05 
  GMRES iteration: 1   Residual: 1.95073e-08 (8.8569e-09 5.05588e-09 0) 1.87214e-08 
smoothSolver:  Solving for omega, Initial residual = 7.08947e-07, Final residual = 1.49104e-09, No Iterations 1
smoothSolver:  Solving for k, Initial residual = 2.04141e-05, Final residual = 1.51159e-07, No Iterations 1
ExecutionTime = 3.46 s  ExecutionStepTime = 0.07 s  ClockTime = 3 s

Time = 27

pseudoTime: iteration 135554
Pseudo Courant No: 1
Damped pseudo Courant No: Min: 1 Mean: 1 Max: 1
Pseudo deltaT: Min: 7.61909e-09 Mean: 6.03003e-07 Max: 6.81111e-06
Solving for (rho rhoU rhoE)
  GMRES iteration: 0   Residual: 2.90441e-05 (2.97759e-05 1.80611e-05 4.40422e-19) 3.90271e-05 
  GMRES iteration: 1   Residual: 1.93912e-08 (8.82923e-09 5.05014e-09 0) 1.86211e-08 
smoothSolver:  Solving for omega, Initial residual = 7.08167e-07, Final residual = 1.48855e-09, No Iterations 1
smoothSolver:  Solving for k, Initial residual = 2.04086e-05, Final residual = 1.50943e-07, No Iterations 1
ExecutionTime = 3.52 s  ExecutionStepTime = 0.06 s  ClockTime = 4 s

Time = 28

pseudoTime: iteration 135555
Pseudo Courant No: 1
Damped pseudo Courant No: Min: 1 Mean: 1 Max: 1
Pseudo deltaT: Min: 7.61911e-09 Mean: 6.03003e-07 Max: 6.81111e-06
Solving for (rho rhoU rhoE)
  GMRES iteration: 0   Residual: 2.91925e-05 (2.99378e-05 1.80966e-05 4.40419e-19) 3.93594e-05 
  GMRES iteration: 1   Residual: 2.41843e-08 (1.16469e-08 6.9752e-09 0) 2.2378e-08 
smoothSolver:  Solving for omega, Initial residual = 7.11721e-07, Final residual = 1.58082e-09, No Iterations 1
smoothSolver:  Solving for k, Initial residual = 2.05679e-05, Final residual = 1.62074e-07, No Iterations 1
ExecutionTime = 3.58 s  ExecutionStepTime = 0.06 s  ClockTime = 4 s

Time = 28

pseudoTime: iteration 135556
Pseudo Courant No: 1
Damped pseudo Courant No: Min: 1 Mean: 1 Max: 1
Pseudo deltaT: Min: 7.61913e-09 Mean: 6.03004e-07 Max: 6.81111e-06
Solving for (rho rhoU rhoE)
  GMRES iteration: 0   Residual: 2.89749e-05 (2.98783e-05 1.8091e-05 4.40417e-19) 3.89591e-05 
  GMRES iteration: 1   Residual: 1.95573e-08 (9.36139e-09 5.50337e-09 0) 1.92085e-08 
smoothSolver:  Solving for omega, Initial residual = 7.10886e-07, Final residual = 1.50277e-09, No Iterations 1
smoothSolver:  Solving for k, Initial residual = 2.04565e-05, Final residual = 1.54163e-07, No Iterations 1
ExecutionTime = 3.63 s  ExecutionStepTime = 0.05 s  ClockTime = 4 s

Time = 28

pseudoTime: iteration 135557
Pseudo Courant No: 1
Damped pseudo Courant No: Min: 1 Mean: 1 Max: 1
Pseudo deltaT: Min: 7.61915e-09 Mean: 6.03004e-07 Max: 6.81111e-06
Solving for (rho rhoU rhoE)
  GMRES iteration: 0   Residual: 2.90312e-05 (2.99046e-05 1.80886e-05 4.40415e-19) 3.92539e-05 
  GMRES iteration: 1   Residual: 1.9868e-08 (9.32283e-09 5.381e-09 0) 1.90597e-08 
smoothSolver:  Solving for omega, Initial residual = 7.09442e-07, Final residual = 1.49779e-09, No Iterations 1
smoothSolver:  Solving for k, Initial residual = 2.0435e-05, Final residual = 1.53504e-07, No Iterations 1
ExecutionTime = 3.71 s  ExecutionStepTime = 0.08 s  ClockTime = 4 s

Time = 29

pseudoTime: iteration 135558
Pseudo Courant No: 1
Damped pseudo Courant No: Min: 1 Mean: 1 Max: 1
Pseudo deltaT: Min: 7.61917e-09 Mean: 6.03004e-07 Max: 6.81111e-06
Solving for (rho rhoU rhoE)
  GMRES iteration: 0   Residual: 2.9025e-05 (2.99048e-05 1.80891e-05 4.40412e-19) 3.92988e-05 
  GMRES iteration: 1   Residual: 1.95221e-08 (9.15766e-09 5.25223e-09 0) 1.87147e-08 
smoothSolver:  Solving for omega, Initial residual = 7.09949e-07, Final residual = 1.49264e-09, No Iterations 1
smoothSolver:  Solving for k, Initial residual = 2.04232e-05, Final residual = 1.52954e-07, No Iterations 1
ExecutionTime = 3.76 s  ExecutionStepTime = 0.05 s  ClockTime = 4 s

Time = 30

pseudoTime: iteration 135559
Pseudo Courant No: 1
Damped pseudo Courant No: Min: 1 Mean: 1 Max: 1
Pseudo deltaT: Min: 7.6192e-09 Mean: 6.03005e-07 Max: 6.81111e-06
Solving for (rho rhoU rhoE)
  GMRES iteration: 0   Residual: 2.90108e-05 (2.99436e-05 1.81065e-05 4.4041e-19) 3.90417e-05 
  GMRES iteration: 1   Residual: 1.95176e-08 (9.30806e-09 5.40326e-09 0) 1.88929e-08 
smoothSolver:  Solving for omega, Initial residual = 7.08579e-07, Final residual = 1.48783e-09, No Iterations 1
smoothSolver:  Solving for k, Initial residual = 2.04205e-05, Final residual = 1.52558e-07, No Iterations 1
ExecutionTime = 3.83 s  ExecutionStepTime = 0.07 s  ClockTime = 4 s

Time = 30

pseudoTime: iteration 135560
Pseudo Courant No: 1
Damped pseudo Courant No: Min: 1 Mean: 1 Max: 1
Pseudo deltaT: Min: 7.61922e-09 Mean: 6.03005e-07 Max: 6.81111e-06
Solving for (rho rhoU rhoE)
  GMRES iteration: 0   Residual: 2.91439e-05 (2.99961e-05 1.81155e-05 4.40407e-19) 3.94922e-05 
  GMRES iteration: 1   Residual: 1.87458e-08 (8.82419e-09 5.07228e-09 0) 1.81791e-08 
smoothSolver:  Solving for omega, Initial residual = 7.08796e-07, Final residual = 1.48417e-09, No Iterations 1
smoothSolver:  Solving for k, Initial residual = 2.042e-05, Final residual = 1.52176e-07, No Iterations 1
ExecutionTime = 3.9 s  ExecutionStepTime = 0.07 s  ClockTime = 4 s

Time = 30

pseudoTime: iteration 135561
Pseudo Courant No: 1
Damped pseudo Courant No: Min: 1 Mean: 1 Max: 1
Pseudo deltaT: Min: 7.61924e-09 Mean: 6.03006e-07 Max: 6.81111e-06
Solving for (rho rhoU rhoE)
  GMRES iteration: 0   Residual: 2.90333e-05 (2.99864e-05 1.8115e-05 4.40405e-19) 3.93095e-05 
  GMRES iteration: 1   Residual: 1.84298e-08 (8.72419e-09 5.02526e-09 0) 1.79861e-08 
smoothSolver:  Solving for omega, Initial residual = 7.08958e-07, Final residual = 1.48304e-09, No Iterations 1
smoothSolver:  Solving for k, Initial residual = 2.04182e-05, Final residual = 1.51878e-07, No Iterations 1
ExecutionTime = 3.96 s  ExecutionStepTime = 0.06 s  ClockTime = 4 s

Time = 31

pseudoTime: iteration 135562
Pseudo Courant No: 1
Damped pseudo Courant No: Min: 1 Mean: 1 Max: 1
Pseudo deltaT: Min: 7.61927e-09 Mean: 6.03006e-07 Max: 6.81111e-06
Solving for (rho rhoU rhoE)
  GMRES iteration: 0   Residual: 2.89786e-05 (2.99867e-05 1.81234e-05 4.40402e-19) 3.92596e-05 
  GMRES iteration: 1   Residual: 1.83489e-08 (8.63088e-09 4.98181e-09 0) 1.78577e-08 
smoothSolver:  Solving for omega, Initial residual = 7.08619e-07, Final residual = 1.48156e-09, No Iterations 1
smoothSolver:  Solving for k, Initial residual = 2.04152e-05, Final residual = 1.51648e-07, No Iterations 1
ExecutionTime = 4.02 s  ExecutionStepTime = 0.06 s  ClockTime = 4 s

Time = 32

pseudoTime: iteration 135563
Pseudo Courant No: 1
Damped pseudo Courant No: Min: 1 Mean: 1 Max: 1
Pseudo deltaT: Min: 7.61929e-09 Mean: 6.03006e-07 Max: 6.81111e-06
Solving for (rho rhoU rhoE)
  GMRES iteration: 0   Residual: 2.90632e-05 (3.00413e-05 1.81392e-05 4.404e-19) 3.93684e-05 
  GMRES iteration: 1   Residual: 1.83159e-08 (8.70437e-09 5.02718e-09 0) 1.79107e-08 
smoothSolver:  Solving for omega, Initial residual = 7.08006e-07, Final residual = 1.48202e-09, No Iterations 1
smoothSolver:  Solving for k, Initial residual = 2.04146e-05, Final residual = 1.51531e-07, No Iterations 1
ExecutionTime = 4.08 s  ExecutionStepTime = 0.06 s  ClockTime = 4 s

Time = 32

pseudoTime: iteration 135564
Pseudo Courant No: 1
Damped pseudo Courant No: Min: 1 Mean: 1 Max: 1
Pseudo deltaT: Min: 7.61931e-09 Mean: 6.03007e-07 Max: 6.81111e-06
Solving for (rho rhoU rhoE)
  GMRES iteration: 0   Residual: 2.90473e-05 (3.00431e-05 1.81502e-05 4.40398e-19) 3.93472e-05 
  GMRES iteration: 1   Residual: 1.81197e-08 (8.57882e-09 4.97836e-09 0) 1.7725e-08 
smoothSolver:  Solving for omega, Initial residual = 7.086e-07, Final residual = 1.48217e-09, No Iterations 1
smoothSolver:  Solving for k, Initial residual = 2.04152e-05, Final residual = 1.51485e-07, No Iterations 1
ExecutionTime = 4.14 s  ExecutionStepTime = 0.06 s  ClockTime = 4 s

Time = 32

pseudoTime: iteration 135565
Pseudo Courant No: 1
Damped pseudo Courant No: Min: 1 Mean: 1 Max: 1
Pseudo deltaT: Min: 7.61934e-09 Mean: 6.03007e-07 Max: 6.81111e-06
Solving for (rho rhoU rhoE)
  GMRES iteration: 0   Residual: 2.90461e-05 (3.00704e-05 1.81553e-05 4.40395e-19) 3.94403e-05 
  GMRES iteration: 1   Residual: 1.8035e-08 (8.62808e-09 4.99366e-09 0) 1.77344e-08 
smoothSolver:  Solving for omega, Initial residual = 7.1086e-07, Final residual = 1.48362e-09, No Iterations 1
smoothSolver:  Solving for k, Initial residual = 2.04152e-05, Final residual = 1.51515e-07, No Iterations 1
ExecutionTime = 4.21 s  ExecutionStepTime = 0.07 s  ClockTime = 4 s

Time = 33

pseudoTime: iteration 135566
Pseudo Courant No: 1
Damped pseudo Courant No: Min: 1 Mean: 1 Max: 1
Pseudo deltaT: Min: 7.61936e-09 Mean: 6.03007e-07 Max: 6.81111e-06
Solving for (rho rhoU rhoE)
  GMRES iteration: 0   Residual: 2.92107e-05 (3.02938e-05 1.82737e-05 4.40393e-19) 3.96774e-05 
  GMRES iteration: 1   Residual: 1.78075e-08 (8.51189e-09 4.94197e-09 0) 1.7497e-08 
smoothSolver:  Solving for omega, Initial residual = 7.11559e-07, Final residual = 1.48587e-09, No Iterations 1
smoothSolver:  Solving for k, Initial residual = 2.05488e-05, Final residual = 1.5189e-07, No Iterations 1
ExecutionTime = 4.27 s  ExecutionStepTime = 0.06 s  ClockTime = 4 s

Time = 34

pseudoTime: iteration 135567
Pseudo Courant No: 1
Damped pseudo Courant No: Min: 1 Mean: 1 Max: 1
Pseudo deltaT: Min: 7.61939e-09 Mean: 6.03008e-07 Max: 6.81111e-06
Solving for (rho rhoU rhoE)
  GMRES iteration: 0   Residual: 2.92533e-05 (3.03629e-05 1.82821e-05 4.40391e-19) 3.97003e-05 
  GMRES iteration: 1   Residual: 1.76888e-08 (8.52502e-09 4.94345e-09 0) 1.74542e-08 
smoothSolver:  Solving for omega, Initial residual = 7.12164e-07, Final residual = 1.48767e-09, No Iterations 1
smoothSolver:  Solving for k, Initial residual = 2.05168e-05, Final residual = 1.51882e-07, No Iterations 1
ExecutionTime = 4.33 s  ExecutionStepTime = 0.06 s  ClockTime = 4 s

Time = 34

pseudoTime: iteration 135568
Pseudo Courant No: 1
Damped pseudo Courant No: Min: 1 Mean: 1 Max: 1
Pseudo deltaT: Min: 7.61942e-09 Mean: 6.03008e-07 Max: 6.81111e-06
Solving for (rho rhoU rhoE)
  GMRES iteration: 0   Residual: 2.91718e-05 (3.03384e-05 1.8258e-05 4.40389e-19) 3.97388e-05 
  GMRES iteration: 1   Residual: 1.75131e-08 (8.47479e-09 4.92004e-09 0) 1.73269e-08 
smoothSolver:  Solving for omega, Initial residual = 7.11711e-07, Final residual = 1.48951e-09, No Iterations 1
smoothSolver:  Solving for k, Initial residual = 2.05113e-05, Final residual = 1.51957e-07, No Iterations 1
ExecutionTime = 4.39 s  ExecutionStepTime = 0.06 s  ClockTime = 4 s

Time = 34

pseudoTime: iteration 135569
Pseudo Courant No: 1
Damped pseudo Courant No: Min: 1 Mean: 1 Max: 1
Pseudo deltaT: Min: 7.61945e-09 Mean: 6.03008e-07 Max: 6.81111e-06
Solving for (rho rhoU rhoE)
  GMRES iteration: 0   Residual: 2.91492e-05 (3.03524e-05 1.82658e-05 4.40387e-19) 3.97071e-05 
  GMRES iteration: 1   Residual: 1.74049e-08 (8.47938e-09 4.92624e-09 0) 1.72782e-08 
smoothSolver:  Solving for omega, Initial residual = 7.10873e-07, Final residual = 1.49103e-09, No Iterations 1
smoothSolver:  Solving for k, Initial residual = 2.0501e-05, Final residual = 1.52025e-07, No Iterations 1
ExecutionTime = 4.46 s  ExecutionStepTime = 0.07 s  ClockTime = 4 s

Time = 35

pseudoTime: iteration 135570
Pseudo Courant No: 1
Damped pseudo Courant No: Min: 1 Mean: 1 Max: 1
Pseudo deltaT: Min: 7.61947e-09 Mean: 6.03009e-07 Max: 6.81111e-06
Solving for (rho rhoU rhoE)
  GMRES iteration: 0   Residual: 2.91654e-05 (3.0368e-05 1.82705e-05 4.40384e-19) 3.9926e-05 
  GMRES iteration: 1   Residual: 1.73003e-08 (8.45623e-09 4.91413e-09 0) 1.72063e-08 
smoothSolver:  Solving for omega, Initial residual = 7.09535e-07, Final residual = 1.49177e-09, No Iterations 1
smoothSolver:  Solving for k, Initial residual = 2.04862e-05, Final residual = 1.52073e-07, No Iterations 1
ExecutionTime = 4.52 s  ExecutionStepTime = 0.06 s  ClockTime = 5 s

Time = 36

pseudoTime: iteration 135571
Pseudo Courant No: 1
Damped pseudo Courant No: Min: 1 Mean: 1 Max: 1
Pseudo deltaT: Min: 7.6195e-09 Mean: 6.03009e-07 Max: 6.81111e-06
Solving for (rho rhoU rhoE)
  GMRES iteration: 0   Residual: 2.92193e-05 (3.04476e-05 1.82785e-05 4.40382e-19) 3.95997e-05 
  GMRES iteration: 1   Residual: 1.71663e-08 (8.43482e-09 4.9161e-09 0) 1.71081e-08 
smoothSolver:  Solving for omega, Initial residual = 7.1012e-07, Final residual = 1.49251e-09, No Iterations 1
smoothSolver:  Solving for k, Initial residual = 2.04684e-05, Final residual = 1.521e-07, No Iterations 1
ExecutionTime = 4.59 s  ExecutionStepTime = 0.07 s  ClockTime = 5 s

Time = 36

pseudoTime: iteration 135572
Pseudo Courant No: 1
Damped pseudo Courant No: Min: 1 Mean: 1 Max: 1
Pseudo deltaT: Min: 7.61953e-09 Mean: 6.03009e-07 Max: 6.81111e-06
Solving for (rho rhoU rhoE)
  GMRES iteration: 0   Residual: 2.91333e-05 (3.04265e-05 1.82175e-05 4.40379e-19) 3.97443e-05 
  GMRES iteration: 1   Residual: 1.70801e-08 (8.43084e-09 4.90454e-09 0) 1.70575e-08 
smoothSolver:  Solving for omega, Initial residual = 7.08738e-07, Final residual = 1.49241e-09, No Iterations 1
smoothSolver:  Solving for k, Initial residual = 2.04485e-05, Final residual = 1.52088e-07, No Iterations 1
ExecutionTime = 4.65 s  ExecutionStepTime = 0.06 s  ClockTime = 5 s

Time = 36

pseudoTime: iteration 135573
Pseudo Courant No: 1
Damped pseudo Courant No: Min: 1 Mean: 1 Max: 1
Pseudo deltaT: Min: 7.61956e-09 Mean: 6.0301e-07 Max: 6.81111e-06
Solving for (rho rhoU rhoE)
  GMRES iteration: 0   Residual: 2.90659e-05 (3.0467e-05 1.82364e-05 4.40377e-19) 3.95009e-05 
  GMRES iteration: 1   Residual: 1.70025e-08 (8.44145e-09 4.9146e-09 0) 1.70077e-08 
smoothSolver:  Solving for omega, Initial residual = 7.09713e-07, Final residual = 1.49233e-09, No Iterations 1
smoothSolver:  Solving for k, Initial residual = 2.04307e-05, Final residual = 1.52057e-07, No Iterations 1
ExecutionTime = 4.71 s  ExecutionStepTime = 0.06 s  ClockTime = 5 s

Time = 37

pseudoTime: iteration 135574
Pseudo Courant No: 1
Damped pseudo Courant No: Min: 1 Mean: 1 Max: 1
Pseudo deltaT: Min: 7.61959e-09 Mean: 6.0301e-07 Max: 6.81111e-06
Solving for (rho rhoU rhoE)
  GMRES iteration: 0   Residual: 2.90957e-05 (3.05094e-05 1.82647e-05 4.40375e-19) 3.97383e-05 
  GMRES iteration: 1   Residual: 1.69194e-08 (8.42931e-09 4.90679e-09 0) 1.69562e-08 
smoothSolver:  Solving for omega, Initial residual = 7.07506e-07, Final residual = 1.49154e-09, No Iterations 1
smoothSolver:  Solving for k, Initial residual = 2.04148e-05, Final residual = 1.51992e-07, No Iterations 1
ExecutionTime = 4.78 s  ExecutionStepTime = 0.07 s  ClockTime = 5 s

Time = 38

pseudoTime: iteration 135575
Pseudo Courant No: 1
Damped pseudo Courant No: Min: 1 Mean: 1 Max: 1
Pseudo deltaT: Min: 7.61962e-09 Mean: 6.0301e-07 Max: 6.81111e-06
Solving for (rho rhoU rhoE)
  GMRES iteration: 0   Residual: 2.93097e-05 (3.07287e-05 1.83682e-05 4.40373e-19) 4.00384e-05 
  GMRES iteration: 1   Residual: 1.67898e-08 (8.37042e-09 4.87657e-09 0) 1.67942e-08 
smoothSolver:  Solving for omega, Initial residual = 7.11328e-07, Final residual = 1.4962e-09, No Iterations 1
smoothSolver:  Solving for k, Initial residual = 2.06277e-05, Final residual = 1.52492e-07, No Iterations 1
ExecutionTime = 4.84 s  ExecutionStepTime = 0.06 s  ClockTime = 5 s

Time = 38

pseudoTime: iteration 135576
Pseudo Courant No: 1
Damped pseudo Courant No: Min: 1 Mean: 1 Max: 1
Pseudo deltaT: Min: 7.61966e-09 Mean: 6.03011e-07 Max: 6.81111e-06
Solving for (rho rhoU rhoE)
  GMRES iteration: 0   Residual: 2.93768e-05 (3.08244e-05 1.83997e-05 4.40371e-19) 4.03581e-05 
  GMRES iteration: 1   Residual: 1.67352e-08 (8.36735e-09 4.86594e-09 0) 1.67656e-08 
smoothSolver:  Solving for omega, Initial residual = 7.12603e-07, Final residual = 1.49663e-09, No Iterations 1
smoothSolver:  Solving for k, Initial residual = 2.06198e-05, Final residual = 1.5239e-07, No Iterations 1
ExecutionTime = 4.9 s  ExecutionStepTime = 0.06 s  ClockTime = 5 s

Time = 38

pseudoTime: iteration 135577
Pseudo Courant No: 1
Damped pseudo Courant No: Min: 1 Mean: 1 Max: 1
Pseudo deltaT: Min: 7.61969e-09 Mean: 6.03011e-07 Max: 6.81111e-06
Solving for (rho rhoU rhoE)
  GMRES iteration: 0   Residual: 2.93435e-05 (3.08773e-05 1.84028e-05 4.40368e-19) 4.00092e-05 
  GMRES iteration: 1   Residual: 1.66292e-08 (8.34837e-09 4.85585e-09 0) 1.66825e-08 
smoothSolver:  Solving for omega, Initial residual = 7.14481e-07, Final residual = 1.49648e-09, No Iterations 1
smoothSolver:  Solving for k, Initial residual = 2.06258e-05, Final residual = 1.52296e-07, No Iterations 1
ExecutionTime = 4.96 s  ExecutionStepTime = 0.06 s  ClockTime = 5 s

Time = 39

pseudoTime: iteration 135578
Pseudo Courant No: 1
Damped pseudo Courant No: Min: 1 Mean: 1 Max: 1
Pseudo deltaT: Min: 7.61972e-09 Mean: 6.03012e-07 Max: 6.81111e-06
Solving for (rho rhoU rhoE)
  GMRES iteration: 0   Residual: 2.94196e-05 (3.09575e-05 1.84236e-05 4.40366e-19) 4.02659e-05 
  GMRES iteration: 1   Residual: 1.65461e-08 (8.34157e-09 4.84192e-09 0) 1.6639e-08 
smoothSolver:  Solving for omega, Initial residual = 7.13083e-07, Final residual = 1.49584e-09, No Iterations 1
smoothSolver:  Solving for k, Initial residual = 2.06267e-05, Final residual = 1.52169e-07, No Iterations 1
ExecutionTime = 5.02 s  ExecutionStepTime = 0.06 s  ClockTime = 5 s

Time = 40

pseudoTime: iteration 135579
Pseudo Courant No: 1
Damped pseudo Courant No: Min: 1 Mean: 1 Max: 1
Pseudo deltaT: Min: 7.61976e-09 Mean: 6.03012e-07 Max: 6.81111e-06
Solving for (rho rhoU rhoE)
  GMRES iteration: 0   Residual: 2.95213e-05 (3.10992e-05 1.84992e-05 4.40364e-19) 4.04251e-05 
  GMRES iteration: 1   Residual: 2.10262e-08 (1.11148e-08 6.76595e-09 0) 2.01014e-08 
smoothSolver:  Solving for omega, Initial residual = 7.14916e-07, Final residual = 1.52945e-09, No Iterations 1
smoothSolver:  Solving for k, Initial residual = 2.07402e-05, Final residual = 1.57205e-07, No Iterations 1
ExecutionTime = 5.08 s  ExecutionStepTime = 0.06 s  ClockTime = 5 s

Time = 40

pseudoTime: iteration 135580
Pseudo Courant No: 1
Damped pseudo Courant No: Min: 1 Mean: 1 Max: 1
Pseudo deltaT: Min: 7.61979e-09 Mean: 6.03012e-07 Max: 6.81111e-06
Solving for (rho rhoU rhoE)
  GMRES iteration: 0   Residual: 2.96674e-05 (3.13305e-05 1.86394e-05 4.40361e-19) 4.08945e-05 
  GMRES iteration: 1   Residual: 1.81237e-08 (9.6039e-09 5.8327e-09 0) 1.80734e-08 
smoothSolver:  Solving for omega, Initial residual = 7.14948e-07, Final residual = 1.52248e-09, No Iterations 1
smoothSolver:  Solving for k, Initial residual = 2.07e-05, Final residual = 1.55462e-07, No Iterations 1
ExecutionTime = 5.15 s  ExecutionStepTime = 0.07 s  ClockTime = 5 s

Time = 40

pseudoTime: iteration 135581
Pseudo Courant No: 1
Damped pseudo Courant No: Min: 1 Mean: 1 Max: 1
Pseudo deltaT: Min: 7.61983e-09 Mean: 6.03013e-07 Max: 6.81111e-06
Solving for (rho rhoU rhoE)
  GMRES iteration: 0   Residual: 2.9713e-05 (3.13525e-05 1.86676e-05 4.4036e-19) 4.07216e-05 
  GMRES iteration: 1   Residual: 1.78602e-08 (9.36229e-09 5.54543e-09 0) 1.76396e-08 
smoothSolver:  Solving for omega, Initial residual = 7.15087e-07, Final residual = 1.51661e-09, No Iterations 1
smoothSolver:  Solving for k, Initial residual = 2.06519e-05, Final residual = 1.54885e-07, No Iterations 1
ExecutionTime = 5.21 s  ExecutionStepTime = 0.06 s  ClockTime = 5 s

Time = 41

pseudoTime: iteration 135582
Pseudo Courant No: 1
Damped pseudo Courant No: Min: 1 Mean: 1 Max: 1
Pseudo deltaT: Min: 7.61986e-09 Mean: 6.03013e-07 Max: 6.81111e-06
Solving for (rho rhoU rhoE)
  GMRES iteration: 0   Residual: 2.97801e-05 (3.13932e-05 1.86735e-05 4.40357e-19) 4.09214e-05 
  GMRES iteration: 1   Residual: 1.77583e-08 (9.32914e-09 5.52876e-09 0) 1.75378e-08 
smoothSolver:  Solving for omega, Initial residual = 7.14905e-07, Final residual = 1.50836e-09, No Iterations 1
smoothSolver:  Solving for k, Initial residual = 2.06313e-05, Final residual = 1.54196e-07, No Iterations 1
ExecutionTime = 5.27 s  ExecutionStepTime = 0.06 s  ClockTime = 5 s

Time = 42

pseudoTime: iteration 135583
Pseudo Courant No: 1
Damped pseudo Courant No: Min: 1 Mean: 1 Max: 1
Pseudo deltaT: Min: 7.6199e-09 Mean: 6.03013e-07 Max: 6.81111e-06
Solving for (rho rhoU rhoE)
  GMRES iteration: 0   Residual: 2.98258e-05 (3.14053e-05 1.86998e-05 4.40355e-19) 4.06877e-05 
  GMRES iteration: 1   Residual: 1.7977e-08 (9.54844e-09 5.74894e-09 0) 1.78261e-08 
smoothSolver:  Solving for omega, Initial residual = 7.15824e-07, Final residual = 1.50224e-09, No Iterations 1
smoothSolver:  Solving for k, Initial residual = 2.0598e-05, Final residual = 1.5341e-07, No Iterations 1
ExecutionTime = 5.34 s  ExecutionStepTime = 0.07 s  ClockTime = 5 s

Time = 42

pseudoTime: iteration 135584
Pseudo Courant No: 1
Damped pseudo Courant No: Min: 1 Mean: 1 Max: 1
Pseudo deltaT: Min: 7.61994e-09 Mean: 6.03014e-07 Max: 6.81111e-06
Solving for (rho rhoU rhoE)
  GMRES iteration: 0   Residual: 2.98746e-05 (3.14652e-05 1.86999e-05 4.40353e-19) 4.08863e-05 
  GMRES iteration: 1   Residual: 1.75045e-08 (9.25168e-09 5.54262e-09 0) 1.7494e-08 
smoothSolver:  Solving for omega, Initial residual = 7.15401e-07, Final residual = 1.49589e-09, No Iterations 1
smoothSolver:  Solving for k, Initial residual = 2.05452e-05, Final residual = 1.52643e-07, No Iterations 1
ExecutionTime = 5.4 s  ExecutionStepTime = 0.06 s  ClockTime = 5 s

Time = 42

pseudoTime: iteration 135585
Pseudo Courant No: 1
Damped pseudo Courant No: Min: 1 Mean: 1 Max: 1
Pseudo deltaT: Min: 7.61998e-09 Mean: 6.03014e-07 Max: 6.81111e-06
Solving for (rho rhoU rhoE)
  GMRES iteration: 0   Residual: 2.99145e-05 (3.14855e-05 1.8745e-05 4.40351e-19) 4.08533e-05 
  GMRES iteration: 1   Residual: 1.70151e-08 (8.92439e-09 5.30499e-09 0) 1.71173e-08 
smoothSolver:  Solving for omega, Initial residual = 7.17247e-07, Final residual = 1.49218e-09, No Iterations 1
smoothSolver:  Solving for k, Initial residual = 2.04911e-05, Final residual = 1.5205e-07, No Iterations 1
ExecutionTime = 5.47 s  ExecutionStepTime = 0.07 s  ClockTime = 5 s

Time = 43

pseudoTime: iteration 135586
Pseudo Courant No: 1
Damped pseudo Courant No: Min: 1 Mean: 1 Max: 1
Pseudo deltaT: Min: 7.62002e-09 Mean: 6.03014e-07 Max: 6.81111e-06
Solving for (rho rhoU rhoE)
  GMRES iteration: 0   Residual: 2.99787e-05 (3.15199e-05 1.87529e-05 4.40349e-19) 4.11275e-05 
  GMRES iteration: 1   Residual: 1.64678e-08 (8.55965e-09 5.02123e-09 0) 1.66632e-08 
smoothSolver:  Solving for omega, Initial residual = 7.17605e-07, Final residual = 1.49073e-09, No Iterations 1
smoothSolver:  Solving for k, Initial residual = 2.04452e-05, Final residual = 1.51659e-07, No Iterations 1
ExecutionTime = 5.53 s  ExecutionStepTime = 0.06 s  ClockTime = 6 s

Time = 44

pseudoTime: iteration 135587
Pseudo Courant No: 1
Damped pseudo Courant No: Min: 1 Mean: 1 Max: 1
Pseudo deltaT: Min: 7.62006e-09 Mean: 6.03015e-07 Max: 6.81111e-06
Solving for (rho rhoU rhoE)
  GMRES iteration: 0   Residual: 3.00997e-05 (3.15617e-05 1.87915e-05 4.40347e-19) 4.10054e-05 
  GMRES iteration: 1   Residual: 1.61505e-08 (8.34732e-09 4.88208e-09 0) 1.63928e-08 
smoothSolver:  Solving for omega, Initial residual = 7.18593e-07, Final residual = 1.4921e-09, No Iterations 1
smoothSolver:  Solving for k, Initial residual = 2.04224e-05, Final residual = 1.51547e-07, No Iterations 1
ExecutionTime = 5.59 s  ExecutionStepTime = 0.06 s  ClockTime = 6 s

Time = 44

pseudoTime: iteration 135588
Pseudo Courant No: 1
Damped pseudo Courant No: Min: 1 Mean: 1 Max: 1
Pseudo deltaT: Min: 7.6201e-09 Mean: 6.03015e-07 Max: 6.81111e-06
Solving for (rho rhoU rhoE)
  GMRES iteration: 0   Residual: 3.00849e-05 (3.15324e-05 1.883e-05 4.40345e-19) 4.10997e-05 
  GMRES iteration: 1   Residual: 1.61689e-08 (8.3769e-09 4.9155e-09 0) 1.64176e-08 
smoothSolver:  Solving for omega, Initial residual = 7.1829e-07, Final residual = 1.49628e-09, No Iterations 1
smoothSolver:  Solving for k, Initial residual = 2.04185e-05, Final residual = 1.51605e-07, No Iterations 1
ExecutionTime = 5.66 s  ExecutionStepTime = 0.07 s  ClockTime = 6 s

Time = 44

pseudoTime: iteration 135589
Pseudo Courant No: 1
Damped pseudo Courant No: Min: 1 Mean: 1 Max: 1
Pseudo deltaT: Min: 7.62014e-09 Mean: 6.03015e-07 Max: 6.81111e-06
Solving for (rho rhoU rhoE)
  GMRES iteration: 0   Residual: 3.01914e-05 (3.15891e-05 1.89286e-05 4.40343e-19) 4.10257e-05 
  GMRES iteration: 1   Residual: 2.01104e-08 (1.07878e-08 6.63753e-09 0) 1.94895e-08 
smoothSolver:  Solving for omega, Initial residual = 7.19636e-07, Final residual = 1.51054e-09, No Iterations 1
smoothSolver:  Solving for k, Initial residual = 2.05143e-05, Final residual = 1.54532e-07, No Iterations 1
ExecutionTime = 5.72 s  ExecutionStepTime = 0.06 s  ClockTime = 6 s

Time = 45

pseudoTime: iteration 135590
Pseudo Courant No: 1
Damped pseudo Courant No: Min: 1 Mean: 1 Max: 1
Pseudo deltaT: Min: 7.62018e-09 Mean: 6.03016e-07 Max: 6.81111e-06
Solving for (rho rhoU rhoE)
  GMRES iteration: 0   Residual: 3.0224e-05 (3.15616e-05 1.89252e-05 4.40341e-19) 4.10638e-05 
  GMRES iteration: 1   Residual: 1.67347e-08 (8.84945e-09 5.29008e-09 0) 1.68703e-08 
smoothSolver:  Solving for omega, Initial residual = 7.18931e-07, Final residual = 1.53513e-09, No Iterations 1
smoothSolver:  Solving for k, Initial residual = 2.04428e-05, Final residual = 1.5544e-07, No Iterations 1
ExecutionTime = 5.78 s  ExecutionStepTime = 0.06 s  ClockTime = 6 s

Time = 46

pseudoTime: iteration 135591
Pseudo Courant No: 1
Damped pseudo Courant No: Min: 1 Mean: 1 Max: 1
Pseudo deltaT: Min: 7.62023e-09 Mean: 6.03016e-07 Max: 6.81111e-06
Solving for (rho rhoU rhoE)
  GMRES iteration: 0   Residual: 3.04211e-05 (3.16471e-05 1.89968e-05 4.4034e-19) 4.12527e-05 
  GMRES iteration: 1   Residual: 1.72286e-08 (9.1805e-09 5.52946e-09 0) 1.72135e-08 
smoothSolver:  Solving for omega, Initial residual = 7.23435e-07, Final residual = 1.53932e-09, No Iterations 1
smoothSolver:  Solving for k, Initial residual = 2.0459e-05, Final residual = 1.55711e-07, No Iterations 1
ExecutionTime = 5.85 s  ExecutionStepTime = 0.07 s  ClockTime = 6 s

Time = 46

pseudoTime: iteration 135592
Pseudo Courant No: 1
Damped pseudo Courant No: Min: 1 Mean: 1 Max: 1
Pseudo deltaT: Min: 7.62027e-09 Mean: 6.03016e-07 Max: 6.81111e-06
Solving for (rho rhoU rhoE)
  GMRES iteration: 0   Residual: 3.04962e-05 (3.16546e-05 1.90336e-05 4.40338e-19) 4.12677e-05 
  GMRES iteration: 1   Residual: 1.75049e-08 (9.35458e-09 5.65639e-09 0) 1.74438e-08 
smoothSolver:  Solving for omega, Initial residual = 7.24345e-07, Final residual = 1.54295e-09, No Iterations 1
smoothSolver:  Solving for k, Initial residual = 2.04716e-05, Final residual = 1.55983e-07, No Iterations 1
ExecutionTime = 5.91 s  ExecutionStepTime = 0.06 s  ClockTime = 6 s

Time = 46

pseudoTime: iteration 135593
Pseudo Courant No: 1
Damped pseudo Courant No: Min: 1 Mean: 1 Max: 1
Pseudo deltaT: Min: 7.62031e-09 Mean: 6.03017e-07 Max: 6.81111e-06
Solving for (rho rhoU rhoE)
  GMRES iteration: 0   Residual: 3.05864e-05 (3.169e-05 1.90951e-05 4.40336e-19) 4.1562e-05 
  GMRES iteration: 1   Residual: 1.7677e-08 (9.46764e-09 5.72973e-09 0) 1.75661e-08 
smoothSolver:  Solving for omega, Initial residual = 7.25307e-07, Final residual = 1.54973e-09, No Iterations 1
smoothSolver:  Solving for k, Initial residual = 2.048e-05, Final residual = 1.56404e-07, No Iterations 1
ExecutionTime = 5.98 s  ExecutionStepTime = 0.07 s  ClockTime = 6 s

Time = 47

pseudoTime: iteration 135594
Pseudo Courant No: 1
Damped pseudo Courant No: Min: 1 Mean: 1 Max: 1
Pseudo deltaT: Min: 7.62036e-09 Mean: 6.03017e-07 Max: 6.81111e-06
Solving for (rho rhoU rhoE)
  GMRES iteration: 0   Residual: 3.06543e-05 (3.1689e-05 1.91033e-05 4.40334e-19) 4.16372e-05 
  GMRES iteration: 1   Residual: 1.77972e-08 (9.52564e-09 5.76352e-09 0) 1.76263e-08 
smoothSolver:  Solving for omega, Initial residual = 7.26311e-07, Final residual = 1.5566e-09, No Iterations 1
smoothSolver:  Solving for k, Initial residual = 2.04825e-05, Final residual = 1.5687e-07, No Iterations 1
ExecutionTime = 6.04 s  ExecutionStepTime = 0.06 s  ClockTime = 6 s

Time = 48

pseudoTime: iteration 135595
Pseudo Courant No: 1
Damped pseudo Courant No: Min: 1 Mean: 1 Max: 1
Pseudo deltaT: Min: 7.62041e-09 Mean: 6.03017e-07 Max: 6.81111e-06
Solving for (rho rhoU rhoE)
  GMRES iteration: 0   Residual: 3.07988e-05 (3.17414e-05 1.91789e-05 4.40332e-19) 4.15145e-05 
  GMRES iteration: 1   Residual: 1.79069e-08 (9.56421e-09 5.78028e-09 0) 1.76804e-08 
smoothSolver:  Solving for omega, Initial residual = 7.25984e-07, Final residual = 1.56359e-09, No Iterations 1
smoothSolver:  Solving for k, Initial residual = 2.04766e-05, Final residual = 1.57318e-07, No Iterations 1
ExecutionTime = 6.1 s  ExecutionStepTime = 0.06 s  ClockTime = 6 s

Time = 48

pseudoTime: iteration 135596
Pseudo Courant No: 1
Damped pseudo Courant No: Min: 1 Mean: 1 Max: 1
Pseudo deltaT: Min: 7.62045e-09 Mean: 6.03017e-07 Max: 6.81111e-06
Solving for (rho rhoU rhoE)
  GMRES iteration: 0   Residual: 3.0853e-05 (3.17393e-05 1.91747e-05 4.40331e-19) 4.15987e-05 
  GMRES iteration: 1   Residual: 1.79457e-08 (9.58129e-09 5.80856e-09 0) 1.77197e-08 
smoothSolver:  Solving for omega, Initial residual = 7.23371e-07, Final residual = 1.5702e-09, No Iterations 1
smoothSolver:  Solving for k, Initial residual = 2.046e-05, Final residual = 1.57717e-07, No Iterations 1
ExecutionTime = 6.17 s  ExecutionStepTime = 0.07 s  ClockTime = 6 s

Time = 48

pseudoTime: iteration 135597
Pseudo Courant No: 1
Damped pseudo Courant No: Min: 1 Mean: 1 Max: 1
Pseudo deltaT: Min: 7.6205e-09 Mean: 6.03018e-07 Max: 6.81111e-06
Solving for (rho rhoU rhoE)
  GMRES iteration: 0   Residual: 3.08759e-05 (3.1718e-05 1.91968e-05 4.40329e-19) 4.15695e-05 
  GMRES iteration: 1   Residual: 1.79272e-08 (9.5608e-09 5.81789e-09 0) 1.77241e-08 
smoothSolver:  Solving for omega, Initial residual = 7.24831e-07, Final residual = 1.57592e-09, No Iterations 1
smoothSolver:  Solving for k, Initial residual = 2.04308e-05, Final residual = 1.58041e-07, No Iterations 1
ExecutionTime = 6.23 s  ExecutionStepTime = 0.06 s  ClockTime = 6 s

Time = 49

pseudoTime: iteration 135598
Pseudo Courant No: 1
Damped pseudo Courant No: Min: 1 Mean: 1 Max: 1
Pseudo deltaT: Min: 7.62055e-09 Mean: 6.03018e-07 Max: 6.81111e-06
Solving for (rho rhoU rhoE)
  GMRES iteration: 0   Residual: 3.09296e-05 (3.1716e-05 1.92616e-05 4.40328e-19) 4.17773e-05 
  GMRES iteration: 1   Residual: 1.80558e-08 (9.61877e-09 5.87994e-09 0) 1.78541e-08 
smoothSolver:  Solving for omega, Initial residual = 7.24621e-07, Final residual = 1.58032e-09, No Iterations 1
smoothSolver:  Solving for k, Initial residual = 2.03983e-05, Final residual = 1.58339e-07, No Iterations 1
ExecutionTime = 6.3 s  ExecutionStepTime = 0.07 s  ClockTime = 6 s

Time = 50

pseudoTime: iteration 135599
Pseudo Courant No: 1
Damped pseudo Courant No: Min: 1 Mean: 1 Max: 1
Pseudo deltaT: Min: 7.6206e-09 Mean: 6.03018e-07 Max: 6.81111e-06
Solving for (rho rhoU rhoE)
  GMRES iteration: 0   Residual: 3.09937e-05 (3.17373e-05 1.9304e-05 4.40327e-19) 4.17947e-05 
  GMRES iteration: 1   Residual: 1.84191e-08 (9.78726e-09 6.01536e-09 0) 1.81238e-08 
smoothSolver:  Solving for omega, Initial residual = 7.24629e-07, Final residual = 1.58696e-09, No Iterations 1
smoothSolver:  Solving for k, Initial residual = 2.03854e-05, Final residual = 1.5931e-07, No Iterations 1
ExecutionTime = 6.36 s  ExecutionStepTime = 0.06 s  ClockTime = 6 s

Time = 50

pseudoTime: iteration 135600
Pseudo Courant No: 1
Damped pseudo Courant No: Min: 1 Mean: 1 Max: 1
Pseudo deltaT: Min: 7.62065e-09 Mean: 6.03019e-07 Max: 6.81111e-06
Solving for (rho rhoU rhoE)
  GMRES iteration: 0   Residual: 3.1111e-05 (3.17855e-05 1.93739e-05 4.40325e-19) 4.19387e-05 
  GMRES iteration: 1   Residual: 1.86611e-08 (9.88814e-09 6.10178e-09 0) 1.83155e-08 
smoothSolver:  Solving for omega, Initial residual = 7.23664e-07, Final residual = 1.59182e-09, No Iterations 1
smoothSolver:  Solving for k, Initial residual = 2.03794e-05, Final residual = 1.60598e-07, No Iterations 1
ExecutionTime = 6.42 s  ExecutionStepTime = 0.06 s  ClockTime = 6 s

Time = 50

pseudoTime: iteration 135601
Pseudo Courant No: 1
Damped pseudo Courant No: Min: 1 Mean: 1 Max: 1
Pseudo deltaT: Min: 7.6207e-09 Mean: 6.03019e-07 Max: 6.81111e-06
Solving for (rho rhoU rhoE)
  GMRES iteration: 0   Residual: 3.11983e-05 (3.18254e-05 1.94538e-05 4.40323e-19) 4.19743e-05 
  GMRES iteration: 1   Residual: 1.88337e-08 (9.95035e-09 6.16395e-09 0) 1.84756e-08 
smoothSolver:  Solving for omega, Initial residual = 7.24703e-07, Final residual = 1.59657e-09, No Iterations 1
smoothSolver:  Solving for k, Initial residual = 2.03675e-05, Final residual = 1.61668e-07, No Iterations 1
ExecutionTime = 6.48 s  ExecutionStepTime = 0.06 s  ClockTime = 7 s

Time = 51

pseudoTime: iteration 135602
Pseudo Courant No: 1
Damped pseudo Courant No: Min: 1 Mean: 1 Max: 1
Pseudo deltaT: Min: 7.62075e-09 Mean: 6.03019e-07 Max: 6.81111e-06
Solving for (rho rhoU rhoE)
  GMRES iteration: 0   Residual: 3.13022e-05 (3.18789e-05 1.95446e-05 4.40322e-19) 4.21861e-05 
  GMRES iteration: 1   Residual: 1.89162e-08 (9.95117e-09 6.19205e-09 0) 1.85453e-08 
smoothSolver:  Solving for omega, Initial residual = 7.25196e-07, Final residual = 1.60306e-09, No Iterations 1
smoothSolver:  Solving for k, Initial residual = 2.05362e-05, Final residual = 1.62879e-07, No Iterations 1
ExecutionTime = 6.55 s  ExecutionStepTime = 0.07 s  ClockTime = 7 s

Time = 52

pseudoTime: iteration 135603
Pseudo Courant No: 1
Damped pseudo Courant No: Min: 1 Mean: 1 Max: 1
Pseudo deltaT: Min: 7.6208e-09 Mean: 6.0302e-07 Max: 6.81111e-06
Solving for (rho rhoU rhoE)
  GMRES iteration: 0   Residual: 3.15473e-05 (3.19785e-05 1.9639e-05 4.40321e-19) 4.25324e-05 
  GMRES iteration: 1   Residual: 1.90903e-08 (1.00112e-08 6.25033e-09 0) 1.86981e-08 
smoothSolver:  Solving for omega, Initial residual = 7.25217e-07, Final residual = 1.6084e-09, No Iterations 1
smoothSolver:  Solving for k, Initial residual = 2.05246e-05, Final residual = 1.64216e-07, No Iterations 1
ExecutionTime = 6.61 s  ExecutionStepTime = 0.06 s  ClockTime = 7 s

Time = 52

pseudoTime: iteration 135604
Pseudo Courant No: 1
Damped pseudo Courant No: Min: 1 Mean: 1 Max: 1
Pseudo deltaT: Min: 7.62085e-09 Mean: 6.0302e-07 Max: 6.81111e-06
Solving for (rho rhoU rhoE)
  GMRES iteration: 0   Residual: 3.15421e-05 (3.19632e-05 1.97008e-05 4.4032e-19) 4.24386e-05 
  GMRES iteration: 1   Residual: 1.95313e-08 (1.01704e-08 6.31893e-09 0) 1.89903e-08 
smoothSolver:  Solving for omega, Initial residual = 7.25526e-07, Final residual = 1.62808e-09, No Iterations 1
smoothSolver:  Solving for k, Initial residual = 2.05343e-05, Final residual = 1.67141e-07, No Iterations 1
ExecutionTime = 6.68 s  ExecutionStepTime = 0.07 s  ClockTime = 7 s

Time = 52

pseudoTime: iteration 135605
Pseudo Courant No: 1
Damped pseudo Courant No: Min: 1 Mean: 1 Max: 1
Pseudo deltaT: Min: 7.6209e-09 Mean: 6.0302e-07 Max: 6.81111e-06
Solving for (rho rhoU rhoE)
  GMRES iteration: 0   Residual: 3.15817e-05 (3.19492e-05 1.97662e-05 4.40319e-19) 4.25229e-05 
  GMRES iteration: 1   Residual: 1.97848e-08 (1.02676e-08 6.3382e-09 0) 1.9153e-08 
smoothSolver:  Solving for omega, Initial residual = 7.24199e-07, Final residual = 1.65017e-09, No Iterations 1
smoothSolver:  Solving for k, Initial residual = 2.05324e-05, Final residual = 1.70525e-07, No Iterations 1
ExecutionTime = 6.74 s  ExecutionStepTime = 0.06 s  ClockTime = 7 s

Time = 53

pseudoTime: iteration 135606
Pseudo Courant No: 1
Damped pseudo Courant No: Min: 1 Mean: 1 Max: 1
Pseudo deltaT: Min: 7.62096e-09 Mean: 6.03021e-07 Max: 6.81111e-06
Solving for (rho rhoU rhoE)
  GMRES iteration: 0   Residual: 3.16523e-05 (3.1939e-05 1.97995e-05 4.40317e-19) 4.25318e-05 
  GMRES iteration: 1   Residual: 2.01757e-08 (1.04081e-08 6.41495e-09 0) 1.94561e-08 
smoothSolver:  Solving for omega, Initial residual = 7.22432e-07, Final residual = 1.65924e-09, No Iterations 1
smoothSolver:  Solving for k, Initial residual = 2.04926e-05, Final residual = 1.72036e-07, No Iterations 1
ExecutionTime = 6.8 s  ExecutionStepTime = 0.06 s  ClockTime = 7 s

Time = 54

pseudoTime: iteration 135607
Pseudo Courant No: 1
Damped pseudo Courant No: Min: 1 Mean: 1 Max: 1
Pseudo deltaT: Min: 7.62101e-09 Mean: 6.03021e-07 Max: 6.81111e-06
Solving for (rho rhoU rhoE)
  GMRES iteration: 0   Residual: 3.17264e-05 (3.19622e-05 1.98791e-05 4.40316e-19) 4.26198e-05 
  GMRES iteration: 1   Residual: 2.04786e-08 (1.05217e-08 6.44776e-09 0) 1.96927e-08 
smoothSolver:  Solving for omega, Initial residual = 7.23052e-07, Final residual = 1.66839e-09, No Iterations 1
smoothSolver:  Solving for k, Initial residual = 2.04645e-05, Final residual = 1.7402e-07, No Iterations 1
ExecutionTime = 6.86 s  ExecutionStepTime = 0.06 s  ClockTime = 7 s

Time = 54

pseudoTime: iteration 135608
Pseudo Courant No: 1
Damped pseudo Courant No: Min: 1 Mean: 1 Max: 1
Pseudo deltaT: Min: 7.62107e-09 Mean: 6.03021e-07 Max: 6.81111e-06
Solving for (rho rhoU rhoE)
  GMRES iteration: 0   Residual: 3.16312e-05 (3.18736e-05 1.98862e-05 4.40315e-19) 4.26047e-05 
  GMRES iteration: 1   Residual: 2.06076e-08 (1.05506e-08 6.457e-09 0) 1.97981e-08 
smoothSolver:  Solving for omega, Initial residual = 7.20655e-07, Final residual = 1.67314e-09, No Iterations 1
smoothSolver:  Solving for k, Initial residual = 2.04371e-05, Final residual = 1.75098e-07, No Iterations 1
ExecutionTime = 6.92 s  ExecutionStepTime = 0.06 s  ClockTime = 7 s

Time = 54

pseudoTime: iteration 135609
Pseudo Courant No: 1
Damped pseudo Courant No: Min: 1 Mean: 1 Max: 1
Pseudo deltaT: Min: 7.62112e-09 Mean: 6.03022e-07 Max: 6.81111e-06
Solving for (rho rhoU rhoE)
  GMRES iteration: 0   Residual: 3.16887e-05 (3.18817e-05 1.99666e-05 4.40313e-19) 4.25355e-05 
  GMRES iteration: 1   Residual: 2.05687e-08 (1.05089e-08 6.42353e-09 0) 1.97589e-08 
smoothSolver:  Solving for omega, Initial residual = 7.19977e-07, Final residual = 1.6733e-09, No Iterations 1
smoothSolver:  Solving for k, Initial residual = 2.0396e-05, Final residual = 1.75649e-07, No Iterations 1
ExecutionTime = 6.99 s  ExecutionStepTime = 0.07 s  ClockTime = 7 s

Time = 55

pseudoTime: iteration 135610
Pseudo Courant No: 1
Damped pseudo Courant No: Min: 1 Mean: 1 Max: 1
Pseudo deltaT: Min: 7.62118e-09 Mean: 6.03022e-07 Max: 6.81111e-06
Solving for (rho rhoU rhoE)
  GMRES iteration: 0   Residual: 3.17397e-05 (3.18666e-05 2.00104e-05 4.40312e-19) 4.27628e-05 
  GMRES iteration: 1   Residual: 2.01922e-08 (1.03078e-08 6.29625e-09 0) 1.94254e-08 
smoothSolver:  Solving for omega, Initial residual = 7.19907e-07, Final residual = 1.67339e-09, No Iterations 1
smoothSolver:  Solving for k, Initial residual = 2.03467e-05, Final residual = 1.76478e-07, No Iterations 1
ExecutionTime = 7.05 s  ExecutionStepTime = 0.06 s  ClockTime = 7 s

Time = 56

pseudoTime: iteration 135611
Pseudo Courant No: 1
Damped pseudo Courant No: Min: 1 Mean: 1 Max: 1
Pseudo deltaT: Min: 7.62123e-09 Mean: 6.03022e-07 Max: 6.81111e-06
Solving for (rho rhoU rhoE)
  GMRES iteration: 0   Residual: 3.17616e-05 (3.18141e-05 2.00333e-05 4.40311e-19) 4.2796e-05 
  GMRES iteration: 1   Residual: 1.93993e-08 (9.89826e-09 6.03822e-09 0) 1.87369e-08 
smoothSolver:  Solving for omega, Initial residual = 7.16587e-07, Final residual = 1.67167e-09, No Iterations 1
smoothSolver:  Solving for k, Initial residual = 2.03064e-05, Final residual = 1.7736e-07, No Iterations 1
ExecutionTime = 7.12 s  ExecutionStepTime = 0.07 s  ClockTime = 7 s

Time = 56

pseudoTime: iteration 135612
Pseudo Courant No: 1
Damped pseudo Courant No: Min: 1 Mean: 1 Max: 1
Pseudo deltaT: Min: 7.62129e-09 Mean: 6.03023e-07 Max: 6.81111e-06
Solving for (rho rhoU rhoE)
  GMRES iteration: 0   Residual: 3.18051e-05 (3.18052e-05 2.01033e-05 4.4031e-19) 4.2681e-05 
  GMRES iteration: 1   Residual: 1.9452e-08 (9.86829e-09 6.03018e-09 0) 1.8763e-08 
smoothSolver:  Solving for omega, Initial residual = 7.14172e-07, Final residual = 1.66285e-09, No Iterations 1
smoothSolver:  Solving for k, Initial residual = 2.02788e-05, Final residual = 1.77675e-07, No Iterations 1
ExecutionTime = 7.18 s  ExecutionStepTime = 0.06 s  ClockTime = 7 s

Time = 56

pseudoTime: iteration 135613
Pseudo Courant No: 1
Damped pseudo Courant No: Min: 1 Mean: 1 Max: 1
Pseudo deltaT: Min: 7.62135e-09 Mean: 6.03023e-07 Max: 6.81111e-06
Solving for (rho rhoU rhoE)
  GMRES iteration: 0   Residual: 3.18045e-05 (3.17634e-05 2.01417e-05 4.40309e-19) 4.2677e-05 
  GMRES iteration: 1   Residual: 1.92495e-08 (9.73296e-09 5.95791e-09 0) 1.85913e-08 
smoothSolver:  Solving for omega, Initial residual = 7.15848e-07, Final residual = 1.64628e-09, No Iterations 1
smoothSolver:  Solving for k, Initial residual = 2.02649e-05, Final residual = 1.77525e-07, No Iterations 1
ExecutionTime = 7.24 s  ExecutionStepTime = 0.06 s  ClockTime = 7 s

Time = 57

pseudoTime: iteration 135614
Pseudo Courant No: 1
Damped pseudo Courant No: Min: 1 Mean: 1 Max: 1
Pseudo deltaT: Min: 7.62141e-09 Mean: 6.03023e-07 Max: 6.81111e-06
Solving for (rho rhoU rhoE)
  GMRES iteration: 0   Residual: 3.18603e-05 (3.172e-05 2.01657e-05 4.40308e-19) 4.28074e-05 
  GMRES iteration: 1   Residual: 1.92335e-08 (9.68629e-09 5.96539e-09 0) 1.85849e-08 
smoothSolver:  Solving for omega, Initial residual = 7.13828e-07, Final residual = 1.63202e-09, No Iterations 1
[...]
smoothSolver:  Solving for k, Initial residual = 3.0706e-06, Final residual = 2.02528e-08, No Iterations 1
ExecutionTime = 247.13 s  ExecutionStepTime = 0.05 s  ClockTime = 249 s

Time = 1986

pseudoTime: iteration 139472
Pseudo Courant No: 1
Damped pseudo Courant No: Min: 1 Mean: 1 Max: 1
Pseudo deltaT: Min: 7.67876e-09 Mean: 6.03302e-07 Max: 6.81111e-06
Solving for (rho rhoU rhoE)
  GMRES iteration: 0   Residual: 5.59868e-06 (5.31544e-06 3.86696e-06 4.35293e-19) 7.62313e-06 
  GMRES iteration: 1   Residual: 2.28735e-09 (1.06097e-09 6.43743e-10 0) 2.17867e-09 
smoothSolver:  Solving for omega, Initial residual = 2.3459e-07, Final residual = 2.75058e-10, No Iterations 1
smoothSolver:  Solving for k, Initial residual = 3.07165e-06, Final residual = 2.02951e-08, No Iterations 1
ExecutionTime = 247.18 s  ExecutionStepTime = 0.05 s  ClockTime = 249 s

Time = 1986

pseudoTime: iteration 139473
Pseudo Courant No: 1
Damped pseudo Courant No: Min: 1 Mean: 1 Max: 1
Pseudo deltaT: Min: 7.67875e-09 Mean: 6.03302e-07 Max: 6.81111e-06
Solving for (rho rhoU rhoE)
  GMRES iteration: 0   Residual: 5.55721e-06 (5.28946e-06 3.86035e-06 4.35292e-19) 7.23898e-06 
  GMRES iteration: 1   Residual: 2.29318e-09 (1.05575e-09 6.29169e-10 0) 2.15842e-09 
smoothSolver:  Solving for omega, Initial residual = 2.35802e-07, Final residual = 2.75399e-10, No Iterations 1
smoothSolver:  Solving for k, Initial residual = 3.07221e-06, Final residual = 2.03385e-08, No Iterations 1
ExecutionTime = 247.24 s  ExecutionStepTime = 0.06 s  ClockTime = 249 s

Time = 1987

pseudoTime: iteration 139474
Pseudo Courant No: 1
Damped pseudo Courant No: Min: 1 Mean: 1 Max: 1
Pseudo deltaT: Min: 7.67875e-09 Mean: 6.03301e-07 Max: 6.81111e-06
Solving for (rho rhoU rhoE)
  GMRES iteration: 0   Residual: 5.50829e-06 (5.28562e-06 3.82193e-06 4.3529e-19) 7.26015e-06 
  GMRES iteration: 1   Residual: 2.27235e-09 (1.04802e-09 6.22808e-10 0) 2.14703e-09 
smoothSolver:  Solving for omega, Initial residual = 2.35276e-07, Final residual = 2.75698e-10, No Iterations 1
smoothSolver:  Solving for k, Initial residual = 3.07315e-06, Final residual = 2.0383e-08, No Iterations 1
ExecutionTime = 247.29 s  ExecutionStepTime = 0.05 s  ClockTime = 249 s

Time = 1988

pseudoTime: iteration 139475
Pseudo Courant No: 1
Damped pseudo Courant No: Min: 1 Mean: 1 Max: 1
Pseudo deltaT: Min: 7.67875e-09 Mean: 6.03301e-07 Max: 6.81111e-06
Solving for (rho rhoU rhoE)
  GMRES iteration: 0   Residual: 5.32492e-06 (5.21298e-06 3.76602e-06 4.35289e-19) 6.91841e-06 
  GMRES iteration: 1   Residual: 2.37259e-09 (1.07164e-09 6.35981e-10 0) 2.13014e-09 
smoothSolver:  Solving for omega, Initial residual = 2.33223e-07, Final residual = 2.7678e-10, No Iterations 1
smoothSolver:  Solving for k, Initial residual = 3.0739e-06, Final residual = 2.04283e-08, No Iterations 1
ExecutionTime = 247.34 s  ExecutionStepTime = 0.05 s  ClockTime = 249 s

Time = 1988

pseudoTime: iteration 139476
Pseudo Courant No: 1
Damped pseudo Courant No: Min: 1 Mean: 1 Max: 1
Pseudo deltaT: Min: 7.67875e-09 Mean: 6.03301e-07 Max: 6.81111e-06
Solving for (rho rhoU rhoE)
  GMRES iteration: 0   Residual: 5.32453e-06 (5.23056e-06 3.75569e-06 4.35288e-19) 6.92295e-06 
  GMRES iteration: 1   Residual: 2.32094e-09 (1.08109e-09 6.57403e-10 0) 2.19479e-09 
smoothSolver:  Solving for omega, Initial residual = 2.31668e-07, Final residual = 2.76737e-10, No Iterations 1
smoothSolver:  Solving for k, Initial residual = 3.07484e-06, Final residual = 2.04745e-08, No Iterations 1
ExecutionTime = 247.39 s  ExecutionStepTime = 0.05 s  ClockTime = 249 s

Time = 1988

pseudoTime: iteration 139477
Pseudo Courant No: 1
Damped pseudo Courant No: Min: 1 Mean: 1 Max: 1
Pseudo deltaT: Min: 7.67875e-09 Mean: 6.03301e-07 Max: 6.81111e-06
Solving for (rho rhoU rhoE)
  GMRES iteration: 0   Residual: 5.46e-06 (5.30483e-06 3.78111e-06 4.35287e-19) 7.42723e-06 
  GMRES iteration: 1   Residual: 2.33881e-09 (1.08042e-09 6.60384e-10 0) 2.23224e-09 
smoothSolver:  Solving for omega, Initial residual = 2.34777e-07, Final residual = 2.77326e-10, No Iterations 1
smoothSolver:  Solving for k, Initial residual = 3.07671e-06, Final residual = 2.05215e-08, No Iterations 1
ExecutionTime = 247.44 s  ExecutionStepTime = 0.05 s  ClockTime = 249 s

Time = 1989

pseudoTime: iteration 139478
Pseudo Courant No: 1
Damped pseudo Courant No: Min: 1 Mean: 1 Max: 1
Pseudo deltaT: Min: 7.67875e-09 Mean: 6.03301e-07 Max: 6.81111e-06
Solving for (rho rhoU rhoE)
  GMRES iteration: 0   Residual: 5.3826e-06 (5.27397e-06 3.77179e-06 4.35286e-19) 7.08922e-06 
  GMRES iteration: 1   Residual: 2.34042e-09 (1.07968e-09 6.51998e-10 0) 2.2109e-09 
smoothSolver:  Solving for omega, Initial residual = 2.34716e-07, Final residual = 2.77731e-10, No Iterations 1
smoothSolver:  Solving for k, Initial residual = 3.07758e-06, Final residual = 2.05693e-08, No Iterations 1
ExecutionTime = 247.5 s  ExecutionStepTime = 0.06 s  ClockTime = 249 s

Time = 1990

pseudoTime: iteration 139479
Pseudo Courant No: 1
Damped pseudo Courant No: Min: 1 Mean: 1 Max: 1
Pseudo deltaT: Min: 7.67875e-09 Mean: 6.03301e-07 Max: 6.81111e-06
Solving for (rho rhoU rhoE)
  GMRES iteration: 0   Residual: 5.34541e-06 (5.25225e-06 3.74335e-06 4.35284e-19) 7.06685e-06 
  GMRES iteration: 1   Residual: 2.34914e-09 (1.08096e-09 6.46275e-10 0) 2.2142e-09 
smoothSolver:  Solving for omega, Initial residual = 2.32379e-07, Final residual = 2.78437e-10, No Iterations 1
smoothSolver:  Solving for k, Initial residual = 3.07892e-06, Final residual = 2.0618e-08, No Iterations 1
ExecutionTime = 247.55 s  ExecutionStepTime = 0.05 s  ClockTime = 249 s

Time = 1990

pseudoTime: iteration 139480
Pseudo Courant No: 1
Damped pseudo Courant No: Min: 1 Mean: 1 Max: 1
Pseudo deltaT: Min: 7.67875e-09 Mean: 6.03301e-07 Max: 6.81111e-06
Solving for (rho rhoU rhoE)
  GMRES iteration: 0   Residual: 5.27913e-06 (5.22898e-06 3.70885e-06 4.35282e-19) 6.95003e-06 
  GMRES iteration: 1   Residual: 2.34018e-09 (1.07564e-09 6.45596e-10 0) 2.19464e-09 
smoothSolver:  Solving for omega, Initial residual = 2.31784e-07, Final residual = 2.78846e-10, No Iterations 1
smoothSolver:  Solving for k, Initial residual = 3.0794e-06, Final residual = 2.06672e-08, No Iterations 1
ExecutionTime = 247.61 s  ExecutionStepTime = 0.06 s  ClockTime = 249 s

Time = 1990

pseudoTime: iteration 139481
Pseudo Courant No: 1
Damped pseudo Courant No: Min: 1 Mean: 1 Max: 1
Pseudo deltaT: Min: 7.67875e-09 Mean: 6.03301e-07 Max: 6.81111e-06
Solving for (rho rhoU rhoE)
  GMRES iteration: 0   Residual: 5.33563e-06 (5.27027e-06 3.71473e-06 4.35281e-19) 7.29106e-06 
  GMRES iteration: 1   Residual: 2.40387e-09 (1.07735e-09 6.50178e-10 0) 2.18316e-09 
smoothSolver:  Solving for omega, Initial residual = 2.32233e-07, Final residual = 2.80097e-10, No Iterations 1
smoothSolver:  Solving for k, Initial residual = 3.08091e-06, Final residual = 2.07172e-08, No Iterations 1
ExecutionTime = 247.66 s  ExecutionStepTime = 0.05 s  ClockTime = 250 s

Time = 1991

pseudoTime: iteration 139482
Pseudo Courant No: 1
Damped pseudo Courant No: Min: 1 Mean: 1 Max: 1
Pseudo deltaT: Min: 7.67875e-09 Mean: 6.03301e-07 Max: 6.81111e-06
Solving for (rho rhoU rhoE)
  GMRES iteration: 0   Residual: 5.37057e-06 (5.32498e-06 3.73758e-06 4.3528e-19) 7.11741e-06 
  GMRES iteration: 1   Residual: 2.32931e-09 (1.07246e-09 6.52458e-10 0) 2.22122e-09 
smoothSolver:  Solving for omega, Initial residual = 2.33932e-07, Final residual = 2.79918e-10, No Iterations 1
smoothSolver:  Solving for k, Initial residual = 3.08232e-06, Final residual = 2.07679e-08, No Iterations 1
ExecutionTime = 247.71 s  ExecutionStepTime = 0.05 s  ClockTime = 250 s

Time = 1992

pseudoTime: iteration 139483
Pseudo Courant No: 1
Damped pseudo Courant No: Min: 1 Mean: 1 Max: 1
Pseudo deltaT: Min: 7.67874e-09 Mean: 6.03301e-07 Max: 6.81111e-06
Solving for (rho rhoU rhoE)
  GMRES iteration: 0   Residual: 5.34553e-06 (5.30529e-06 3.70096e-06 4.35279e-19) 7.15652e-06 
  GMRES iteration: 1   Residual: 2.35628e-09 (1.07966e-09 6.49299e-10 0) 2.23745e-09 
smoothSolver:  Solving for omega, Initial residual = 2.32158e-07, Final residual = 2.80091e-10, No Iterations 1
smoothSolver:  Solving for k, Initial residual = 3.08339e-06, Final residual = 2.0819e-08, No Iterations 1
ExecutionTime = 247.77 s  ExecutionStepTime = 0.06 s  ClockTime = 250 s

Time = 1992

pseudoTime: iteration 139484
Pseudo Courant No: 1
Damped pseudo Courant No: Min: 1 Mean: 1 Max: 1
Pseudo deltaT: Min: 7.67874e-09 Mean: 6.03301e-07 Max: 6.81111e-06
Solving for (rho rhoU rhoE)
  GMRES iteration: 0   Residual: 5.22123e-06 (5.24837e-06 3.65576e-06 4.35278e-19) 6.94029e-06 
  GMRES iteration: 1   Residual: 2.35983e-09 (1.08181e-09 6.56002e-10 0) 2.22325e-09 
smoothSolver:  Solving for omega, Initial residual = 2.30993e-07, Final residual = 2.802e-10, No Iterations 1
smoothSolver:  Solving for k, Initial residual = 3.08472e-06, Final residual = 2.087e-08, No Iterations 1
ExecutionTime = 247.82 s  ExecutionStepTime = 0.05 s  ClockTime = 250 s

Time = 1992

pseudoTime: iteration 139485
Pseudo Courant No: 1
Damped pseudo Courant No: Min: 1 Mean: 1 Max: 1
Pseudo deltaT: Min: 7.67874e-09 Mean: 6.033e-07 Max: 6.81111e-06
Solving for (rho rhoU rhoE)
  GMRES iteration: 0   Residual: 5.2779e-06 (5.30308e-06 3.67146e-06 4.35276e-19) 6.98991e-06 
  GMRES iteration: 1   Residual: 2.39708e-09 (1.09451e-09 6.62574e-10 0) 2.24968e-09 
smoothSolver:  Solving for omega, Initial residual = 2.31346e-07, Final residual = 2.80808e-10, No Iterations 1
smoothSolver:  Solving for k, Initial residual = 3.08618e-06, Final residual = 2.0921e-08, No Iterations 1
ExecutionTime = 247.87 s  ExecutionStepTime = 0.05 s  ClockTime = 250 s

Time = 1993

pseudoTime: iteration 139486
Pseudo Courant No: 1
Damped pseudo Courant No: Min: 1 Mean: 1 Max: 1
Pseudo deltaT: Min: 7.67874e-09 Mean: 6.033e-07 Max: 6.81111e-06
Solving for (rho rhoU rhoE)
  GMRES iteration: 0   Residual: 5.26896e-06 (5.31424e-06 3.65024e-06 4.35275e-19) 7.10591e-06 
  GMRES iteration: 1   Residual: 2.38807e-09 (1.09122e-09 6.65897e-10 0) 2.24979e-09 
smoothSolver:  Solving for omega, Initial residual = 2.31579e-07, Final residual = 2.81491e-10, No Iterations 1
smoothSolver:  Solving for k, Initial residual = 3.08736e-06, Final residual = 2.09719e-08, No Iterations 1
ExecutionTime = 247.92 s  ExecutionStepTime = 0.05 s  ClockTime = 250 s

Time = 1994

pseudoTime: iteration 139487
Pseudo Courant No: 1
Damped pseudo Courant No: Min: 1 Mean: 1 Max: 1
Pseudo deltaT: Min: 7.67874e-09 Mean: 6.033e-07 Max: 6.81111e-06
Solving for (rho rhoU rhoE)
  GMRES iteration: 0   Residual: 5.27931e-06 (5.33114e-06 3.66107e-06 4.35274e-19) 7.06984e-06 
  GMRES iteration: 1   Residual: 2.59261e-09 (1.14132e-09 6.96527e-10 0) 2.30512e-09 
smoothSolver:  Solving for omega, Initial residual = 2.32664e-07, Final residual = 2.82972e-10, No Iterations 1
smoothSolver:  Solving for k, Initial residual = 3.08883e-06, Final residual = 2.10226e-08, No Iterations 1
ExecutionTime = 247.97 s  ExecutionStepTime = 0.05 s  ClockTime = 250 s

Time = 1994

pseudoTime: iteration 139488
Pseudo Courant No: 1
Damped pseudo Courant No: Min: 1 Mean: 1 Max: 1
Pseudo deltaT: Min: 7.67874e-09 Mean: 6.033e-07 Max: 6.81111e-06
Solving for (rho rhoU rhoE)
  GMRES iteration: 0   Residual: 5.18126e-06 (5.29433e-06 3.63347e-06 4.35272e-19) 6.8947e-06 
  GMRES iteration: 1   Residual: 2.46627e-09 (1.14182e-09 7.06432e-10 0) 2.33509e-09 
smoothSolver:  Solving for omega, Initial residual = 2.31472e-07, Final residual = 2.82896e-10, No Iterations 1
smoothSolver:  Solving for k, Initial residual = 3.09006e-06, Final residual = 2.10732e-08, No Iterations 1
ExecutionTime = 248.02 s  ExecutionStepTime = 0.05 s  ClockTime = 250 s

Time = 1994

pseudoTime: iteration 139489
Pseudo Courant No: 1
Damped pseudo Courant No: Min: 1 Mean: 1 Max: 1
Pseudo deltaT: Min: 7.67874e-09 Mean: 6.033e-07 Max: 6.81111e-06
Solving for (rho rhoU rhoE)
  GMRES iteration: 0   Residual: 5.29776e-06 (5.34706e-06 3.65264e-06 4.35271e-19) 7.26658e-06 
  GMRES iteration: 1   Residual: 2.45601e-09 (1.13098e-09 6.99201e-10 0) 2.34163e-09 
smoothSolver:  Solving for omega, Initial residual = 2.31833e-07, Final residual = 2.83455e-10, No Iterations 1
smoothSolver:  Solving for k, Initial residual = 3.0918e-06, Final residual = 2.11237e-08, No Iterations 1
ExecutionTime = 248.08 s  ExecutionStepTime = 0.06 s  ClockTime = 250 s

Time = 1995

pseudoTime: iteration 139490
Pseudo Courant No: 1
Damped pseudo Courant No: Min: 1 Mean: 1 Max: 1
Pseudo deltaT: Min: 7.67874e-09 Mean: 6.033e-07 Max: 6.81111e-06
Solving for (rho rhoU rhoE)
  GMRES iteration: 0   Residual: 5.20908e-06 (5.31013e-06 3.63043e-06 4.3527e-19) 6.97663e-06 
  GMRES iteration: 1   Residual: 2.45005e-09 (1.1275e-09 6.85061e-10 0) 2.31066e-09 
smoothSolver:  Solving for omega, Initial residual = 2.31809e-07, Final residual = 2.83864e-10, No Iterations 1
smoothSolver:  Solving for k, Initial residual = 3.09264e-06, Final residual = 2.11737e-08, No Iterations 1
ExecutionTime = 248.13 s  ExecutionStepTime = 0.05 s  ClockTime = 250 s

Time = 1996

pseudoTime: iteration 139491
Pseudo Courant No: 1
Damped pseudo Courant No: Min: 1 Mean: 1 Max: 1
Pseudo deltaT: Min: 7.67874e-09 Mean: 6.033e-07 Max: 6.81111e-06
Solving for (rho rhoU rhoE)
  GMRES iteration: 0   Residual: 5.16344e-06 (5.27418e-06 3.59241e-06 4.35269e-19) 6.80558e-06 
  GMRES iteration: 1   Residual: 2.45825e-09 (1.12627e-09 6.80943e-10 0) 2.28216e-09 
smoothSolver:  Solving for omega, Initial residual = 2.28513e-07, Final residual = 2.8443e-10, No Iterations 1
smoothSolver:  Solving for k, Initial residual = 3.09386e-06, Final residual = 2.1223e-08, No Iterations 1
ExecutionTime = 248.18 s  ExecutionStepTime = 0.04 s  ClockTime = 250 s

Time = 1996

pseudoTime: iteration 139492
Pseudo Courant No: 1
Damped pseudo Courant No: Min: 1 Mean: 1 Max: 1
Pseudo deltaT: Min: 7.67874e-09 Mean: 6.033e-07 Max: 6.81111e-06
Solving for (rho rhoU rhoE)
  GMRES iteration: 0   Residual: 5.23622e-06 (5.33532e-06 3.60025e-06 4.35267e-19) 7.04761e-06 
  GMRES iteration: 1   Residual: 2.42407e-09 (1.10335e-09 6.66945e-10 0) 2.28135e-09 
smoothSolver:  Solving for omega, Initial residual = 2.29218e-07, Final residual = 2.8498e-10, No Iterations 1
smoothSolver:  Solving for k, Initial residual = 3.0952e-06, Final residual = 2.12721e-08, No Iterations 1
ExecutionTime = 248.24 s  ExecutionStepTime = 0.06 s  ClockTime = 250 s

Time = 1996

pseudoTime: iteration 139493
Pseudo Courant No: 1
Damped pseudo Courant No: Min: 1 Mean: 1 Max: 1
Pseudo deltaT: Min: 7.67873e-09 Mean: 6.033e-07 Max: 6.81111e-06
Solving for (rho rhoU rhoE)
  GMRES iteration: 0   Residual: 5.22348e-06 (5.35655e-06 3.60152e-06 4.35266e-19) 7.18515e-06 
  GMRES iteration: 1   Residual: 2.52982e-09 (1.11978e-09 6.80896e-10 0) 2.27738e-09 
smoothSolver:  Solving for omega, Initial residual = 2.32101e-07, Final residual = 2.86214e-10, No Iterations 1
smoothSolver:  Solving for k, Initial residual = 3.09696e-06, Final residual = 2.13205e-08, No Iterations 1
ExecutionTime = 248.29 s  ExecutionStepTime = 0.05 s  ClockTime = 250 s

Time = 1997

pseudoTime: iteration 139494
Pseudo Courant No: 1
Damped pseudo Courant No: Min: 1 Mean: 1 Max: 1
Pseudo deltaT: Min: 7.67873e-09 Mean: 6.033e-07 Max: 6.81111e-06
Solving for (rho rhoU rhoE)
  GMRES iteration: 0   Residual: 5.22336e-06 (5.35984e-06 3.60713e-06 4.35265e-19) 6.89775e-06 
  GMRES iteration: 1   Residual: 2.44079e-09 (1.12126e-09 6.82908e-10 0) 2.30994e-09 
smoothSolver:  Solving for omega, Initial residual = 2.32239e-07, Final residual = 2.85995e-10, No Iterations 1
smoothSolver:  Solving for k, Initial residual = 3.0987e-06, Final residual = 2.13681e-08, No Iterations 1
ExecutionTime = 248.35 s  ExecutionStepTime = 0.06 s  ClockTime = 250 s

Time = 1998

pseudoTime: iteration 139495
Pseudo Courant No: 1
Damped pseudo Courant No: Min: 1 Mean: 1 Max: 1
Pseudo deltaT: Min: 7.67873e-09 Mean: 6.033e-07 Max: 6.81111e-06
Solving for (rho rhoU rhoE)
  GMRES iteration: 0   Residual: 5.23702e-06 (5.35367e-06 3.59006e-06 4.35264e-19) 7.12315e-06 
  GMRES iteration: 1   Residual: 2.41653e-09 (1.10914e-09 6.74086e-10 0) 2.30223e-09 
smoothSolver:  Solving for omega, Initial residual = 2.28723e-07, Final residual = 2.86186e-10, No Iterations 1
smoothSolver:  Solving for k, Initial residual = 3.09965e-06, Final residual = 2.14149e-08, No Iterations 1
ExecutionTime = 248.4 s  ExecutionStepTime = 0.05 s  ClockTime = 250 s

Time = 1998

pseudoTime: iteration 139496
Pseudo Courant No: 1
Damped pseudo Courant No: Min: 1 Mean: 1 Max: 1
Pseudo deltaT: Min: 7.67873e-09 Mean: 6.03299e-07 Max: 6.81111e-06
Solving for (rho rhoU rhoE)
  GMRES iteration: 0   Residual: 5.20113e-06 (5.32532e-06 3.59047e-06 4.35263e-19) 6.91739e-06 
  GMRES iteration: 1   Residual: 2.42337e-09 (1.09937e-09 6.68132e-10 0) 2.27054e-09 
smoothSolver:  Solving for omega, Initial residual = 2.29365e-07, Final residual = 2.86318e-10, No Iterations 1
smoothSolver:  Solving for k, Initial residual = 3.10082e-06, Final residual = 2.14608e-08, No Iterations 1
ExecutionTime = 248.46 s  ExecutionStepTime = 0.06 s  ClockTime = 250 s

Time = 1998

pseudoTime: iteration 139497
Pseudo Courant No: 1
Damped pseudo Courant No: Min: 1 Mean: 1 Max: 1
Pseudo deltaT: Min: 7.67873e-09 Mean: 6.03299e-07 Max: 6.81111e-06
Solving for (rho rhoU rhoE)
  GMRES iteration: 0   Residual: 5.31458e-06 (5.39251e-06 3.58991e-06 4.35261e-19) 7.30204e-06 
  GMRES iteration: 1   Residual: 2.44533e-09 (1.10777e-09 6.6677e-10 0) 2.30527e-09 
smoothSolver:  Solving for omega, Initial residual = 2.31347e-07, Final residual = 2.86909e-10, No Iterations 1
smoothSolver:  Solving for k, Initial residual = 3.10303e-06, Final residual = 2.15059e-08, No Iterations 1
ExecutionTime = 248.51 s  ExecutionStepTime = 0.05 s  ClockTime = 250 s

Time = 1999

pseudoTime: iteration 139498
Pseudo Courant No: 1
Damped pseudo Courant No: Min: 1 Mean: 1 Max: 1
Pseudo deltaT: Min: 7.67873e-09 Mean: 6.03299e-07 Max: 6.81111e-06
Solving for (rho rhoU rhoE)
  GMRES iteration: 0   Residual: 5.23912e-06 (5.36608e-06 3.56422e-06 4.3526e-19) 7.06166e-06 
  GMRES iteration: 1   Residual: 2.41893e-09 (1.09468e-09 6.59497e-10 0) 2.26928e-09 
smoothSolver:  Solving for omega, Initial residual = 2.32119e-07, Final residual = 2.87429e-10, No Iterations 1
smoothSolver:  Solving for k, Initial residual = 3.10405e-06, Final residual = 2.15501e-08, No Iterations 1
ExecutionTime = 248.56 s  ExecutionStepTime = 0.05 s  ClockTime = 250 s

Time = 2000

pseudoTime: iteration 139499
Pseudo Courant No: 1
Damped pseudo Courant No: Min: 1 Mean: 1 Max: 1
Pseudo deltaT: Min: 7.67873e-09 Mean: 6.03299e-07 Max: 6.81111e-06
Solving for (rho rhoU rhoE)
  GMRES iteration: 0   Residual: 5.21887e-06 (5.36123e-06 3.57104e-06 4.35259e-19) 6.85974e-06 
  GMRES iteration: 1   Residual: 2.56133e-09 (1.1343e-09 6.81162e-10 0) 2.28456e-09 
smoothSolver:  Solving for omega, Initial residual = 2.31292e-07, Final residual = 2.88849e-10, No Iterations 1
smoothSolver:  Solving for k, Initial residual = 3.1059e-06, Final residual = 2.15933e-08, No Iterations 1
ExecutionTime = 248.61 s  ExecutionStepTime = 0.05 s  ClockTime = 251 s

Time = 2000

pseudoTime: iteration 139500
Pseudo Courant No: 1
Damped pseudo Courant No: Min: 1 Mean: 1 Max: 1
Pseudo deltaT: Min: 7.67873e-09 Mean: 6.03299e-07 Max: 6.81111e-06
Solving for (rho rhoU rhoE)
  GMRES iteration: 0   Residual: 5.16486e-06 (5.35451e-06 3.54606e-06 4.35258e-19) 6.9443e-06 
  GMRES iteration: 1   Residual: 2.46934e-09 (1.13341e-09 6.90922e-10 0) 2.34571e-09 
smoothSolver:  Solving for omega, Initial residual = 2.28298e-07, Final residual = 2.88746e-10, No Iterations 1
smoothSolver:  Solving for k, Initial residual = 3.10746e-06, Final residual = 2.16355e-08, No Iterations 1
ExecutionTime = 248.7 s  ExecutionStepTime = 0.09 s  ClockTime = 251 s

End

Finalising parallel run
