/*---------------------------------------------------------------------------*\
| =========                 |                                                 |
| \\      /  F ield         | OpenFOAM: The Open Source CFD Toolbox           |
|  \\    /   O peration     | Version:  v2012                                 |
|   \\  /    A nd           | Website:  www.openfoam.com                      |
|    \\/     M anipulation  |                                                 |
\*---------------------------------------------------------------------------*/
Build  : v2012 OPENFOAM=2012
Arch   : "LSB;label=32;scalar=64"
Exec   : hisa -postProcess -func yPlus -case results_ensemble/sample_2/case2
Date   : Dec 03 2024
Time   : 12:12:01
Host   : chen-virtual-machine
PID    : 73402
I/O    : uncollated
Case   : /home/chen/DAFI/ensemble-learning/test_cases/traincase/compression_ramp_2caseVaMa_PrtAndBeta_withoutTheta/results_ensemble/sample_2/case2
nProcs : 1
trapFpe: Floating point exception trapping enabled (FOAM_SIGFPE).
fileModificationChecking : Monitoring run-time modified files using timeStampMaster (fileModificationSkew 5, maxFileModificationPolls 20)
allowSystemOperations : Allowing user-supplied system call operations

// * * * * * * * * * * * * * * * * * * * * * * * * * * * * * * * * * * * * * //
Create time

Time = 0
Create mesh for time = 0, region region0
Creating static mesh

Steady-state analysis detected

pseudoTime: tolerance = 1e-08 (1e-08 1e-08 1e-08) 1e-08 , relTol = 0 (0 0 0) 0 

Local timestepping selected

Reading thermophysical properties

Selecting thermodynamics package 
{
    type            hePsiThermo;
    mixture         pureMixture;
    transport       sutherland;
    thermo          hConst;
    equationOfState perfectGas;
    specie          specie;
    energy          sensibleInternalEnergy;
}


Viscous analysis detected

Reading field U

Creating turbulence model

Selecting turbulence model type RAS
Selecting RAS turbulence model kOmegaSST
Selecting patchDistMethod meshWave
RAS
{
    RASModel        kOmegaSST;
    turbulence      on;
    betannmodel     0;
    Main            9;
    betascalar      1;
    begin           0.1;
    printCoeffs     on;
    alphaK1         0.85;
    alphaK2         1;
    alphaOmega1     0.5;
    alphaOmega2     0.856;
    gamma1          0.555556;
    gamma2          0.44;
    beta1           0.075;
    beta2           0.0828;
    betaStar        0.09;
    a1              0.31;
    b1              1;
    c1              10;
    F3              false;
    cor             1;
    end             1;
    sca             1;
    height1         0;
    height2         0.1;
    ybegin          0.1;
    decayControl    false;
    kInf            0;
    omegaInf        0;
}


Creating flux scheme

Selecting flux scheme AUSMPlusUp

No finite volume options present
Initial pseudo Courant No: Min: 1 Mean: 1 Max: 1

yPlus yPlus write:
    writing field yPlus
    patch base y+ : min = 0.00791547, max = 26.9049, average = 5.7288

Time = 12800
Create mesh for time = 12800, region region0
Creating static mesh

Steady-state analysis detected

pseudoTime: tolerance = 1e-08 (1e-08 1e-08 1e-08) 1e-08 , relTol = 0 (0 0 0) 0 

Local timestepping selected

Reading thermophysical properties

Selecting thermodynamics package 
{
    type            hePsiThermo;
    mixture         pureMixture;
    transport       sutherland;
    thermo          hConst;
    equationOfState perfectGas;
    specie          specie;
    energy          sensibleInternalEnergy;
}


Viscous analysis detected

Reading field U

Creating turbulence model

Selecting turbulence model type RAS
Selecting RAS turbulence model kOmegaSST
Selecting patchDistMethod meshWave
RAS
{
    RASModel        kOmegaSST;
    turbulence      on;
    betannmodel     0;
    Main            9;
    betascalar      1;
    begin           0.1;
    printCoeffs     on;
    alphaK1         0.85;
    alphaK2         1;
    alphaOmega1     0.5;
    alphaOmega2     0.856;
    gamma1          0.555556;
    gamma2          0.44;
    beta1           0.075;
    beta2           0.0828;
    betaStar        0.09;
    a1              0.31;
    b1              1;
    c1              10;
    F3              false;
    cor             1;
    end             1;
    sca             1;
    height1         0;
    height2         0.1;
    ybegin          0.1;
    decayControl    false;
    kInf            0;
    omegaInf        0;
}


Creating flux scheme

Selecting flux scheme AUSMPlusUp

No finite volume options present
Initial pseudo Courant No: Min: 1 Mean: 1 Max: 1

yPlus yPlus write:
    writing field yPlus
    patch base y+ : min = 0.00113642, max = 32.283, average = 5.19164

Time = 12900
Create mesh for time = 12900, region region0
Creating static mesh

Steady-state analysis detected

pseudoTime: tolerance = 1e-08 (1e-08 1e-08 1e-08) 1e-08 , relTol = 0 (0 0 0) 0 

Local timestepping selected

Reading thermophysical properties

Selecting thermodynamics package 
{
    type            hePsiThermo;
    mixture         pureMixture;
    transport       sutherland;
    thermo          hConst;
    equationOfState perfectGas;
    specie          specie;
    energy          sensibleInternalEnergy;
}


Viscous analysis detected

Reading field U

Creating turbulence model

Selecting turbulence model type RAS
Selecting RAS turbulence model kOmegaSST
Selecting patchDistMethod meshWave
RAS
{
    RASModel        kOmegaSST;
    turbulence      on;
    betannmodel     0;
    Main            9;
    betascalar      1;
    begin           0.1;
    printCoeffs     on;
    alphaK1         0.85;
    alphaK2         1;
    alphaOmega1     0.5;
    alphaOmega2     0.856;
    gamma1          0.555556;
    gamma2          0.44;
    beta1           0.075;
    beta2           0.0828;
    betaStar        0.09;
    a1              0.31;
    b1              1;
    c1              10;
    F3              false;
    cor             1;
    end             1;
    sca             1;
    height1         0;
    height2         0.1;
    ybegin          0.1;
    decayControl    false;
    kInf            0;
    omegaInf        0;
}


Creating flux scheme

Selecting flux scheme AUSMPlusUp

No finite volume options present
Initial pseudo Courant No: Min: 1 Mean: 1 Max: 1

yPlus yPlus write:
    writing field yPlus
    patch base y+ : min = 0.00125911, max = 32.2715, average = 5.19487

Time = 13000
Create mesh for time = 13000, region region0
Creating static mesh

Steady-state analysis detected

pseudoTime: tolerance = 1e-08 (1e-08 1e-08 1e-08) 1e-08 , relTol = 0 (0 0 0) 0 

Local timestepping selected

Reading thermophysical properties

Selecting thermodynamics package 
{
    type            hePsiThermo;
    mixture         pureMixture;
    transport       sutherland;
    thermo          hConst;
    equationOfState perfectGas;
    specie          specie;
    energy          sensibleInternalEnergy;
}


Viscous analysis detected

Reading field U

Creating turbulence model

Selecting turbulence model type RAS
Selecting RAS turbulence model kOmegaSST
Selecting patchDistMethod meshWave
RAS
{
    RASModel        kOmegaSST;
    turbulence      on;
    betannmodel     0;
    Main            9;
    betascalar      1;
    begin           0.1;
    printCoeffs     on;
    alphaK1         0.85;
    alphaK2         1;
    alphaOmega1     0.5;
    alphaOmega2     0.856;
    gamma1          0.555556;
    gamma2          0.44;
    beta1           0.075;
    beta2           0.0828;
    betaStar        0.09;
    a1              0.31;
    b1              1;
    c1              10;
    F3              false;
    cor             1;
    end             1;
    sca             1;
    height1         0;
    height2         0.1;
    ybegin          0.1;
    decayControl    false;
    kInf            0;
    omegaInf        0;
}


Creating flux scheme

Selecting flux scheme AUSMPlusUp

No finite volume options present
Initial pseudo Courant No: Min: 1 Mean: 1 Max: 1

yPlus yPlus write:
    writing field yPlus
    patch base y+ : min = 0.00139601, max = 32.3052, average = 5.1983

End

