/*---------------------------------------------------------------------------*\
| =========                 |                                                 |
| \\      /  F ield         | OpenFOAM: The Open Source CFD Toolbox           |
|  \\    /   O peration     | Version:  v2012                                 |
|   \\  /    A nd           | Website:  www.openfoam.com                      |
|    \\/     M anipulation  |                                                 |
\*---------------------------------------------------------------------------*/
Build  : v2012 OPENFOAM=2012
Arch   : "LSB;label=32;scalar=64"
Exec   : hisa -case results_ensemble/sample_2/case1
Date   : Dec 03 2024
Time   : 12:13:35
Host   : chen-virtual-machine
PID    : 74693
I/O    : uncollated
Case   : /home/chen/DAFI/ensemble-learning/test_cases/traincase/compression_ramp_2caseVaMa_PrtAndBeta_withoutTheta/results_ensemble/sample_2/case1
nProcs : 1
trapFpe: Floating point exception trapping enabled (FOAM_SIGFPE).
fileModificationChecking : Monitoring run-time modified files using timeStampMaster (fileModificationSkew 5, maxFileModificationPolls 20)
allowSystemOperations : Allowing user-supplied system call operations

// * * * * * * * * * * * * * * * * * * * * * * * * * * * * * * * * * * * * * //
Create time

Create mesh for time = 13000, region region0
Creating static mesh

Steady-state analysis detected

pseudoTime: tolerance = 1e-07 (1e-07 1e-07 1e-07) 1e-07 , relTol = 0 (0 0 0) 0 

Local timestepping selected

Reading thermophysical properties

Selecting thermodynamics package 
{
    type            hePsiThermo;
    mixture         pureMixture;
    transport       sutherland;
    thermo          hConst;
    equationOfState perfectGas;
    specie          specie;
    energy          sensibleInternalEnergy;
}


Viscous analysis detected

Reading field U

Creating turbulence model

Selecting turbulence model type RAS
Selecting RAS turbulence model kOmegaSST
Selecting patchDistMethod meshWave
RAS
{
    RASModel        kOmegaSST;
    turbulence      on;
    betannmodel     0;
    printCoeffs     on;
    alphaK1         0.85;
    alphaK2         1;
    alphaOmega1     0.5;
    alphaOmega2     0.856;
    gamma1          0.555556;
    gamma2          0.44;
    beta1           0.075;
    beta2           0.0828;
    betaStar        0.09;
    a1              0.31;
    b1              1;
    c1              10;
    F3              false;
    cor             1;
    begin           0;
    end             1;
    Main            9.22;
    sca             1;
    betascalar      1;
    height1         0;
    height2         0.1;
    ybegin          0.1;
    decayControl    false;
    kInf            0;
    omegaInf        0;
}


Creating flux scheme

Selecting flux scheme AUSMPlusUp

No finite volume options present
Initial pseudo Courant No: Min: 3 Mean: 3 Max: 3


Starting pseudotime iteration loop

Time = 13000

pseudoTime: iteration 148101
Pseudo Courant No: 3
Damped pseudo Courant No: Min: 3 Mean: 3 Max: 3
Pseudo deltaT: Min: 7.18591e-09 Mean: 2.91403e-06 Max: 8.8083e-05
Solving for (rho rhoU rhoE)
  GMRES iteration: 0   Residual: 2.61888e-06 (1.1112e-06 2.56277e-06 1.54137e-18) 4.78457e-06 
  GMRES iteration: 1   Residual: 7.67221e-09 (2.18433e-09 1.4368e-09 0) 6.99304e-09 
smoothSolver:  Solving for omega, Initial residual = 1.00201e-06, Final residual = 1.30012e-09, No Iterations 1
smoothSolver:  Solving for k, Initial residual = 2.69514e-07, Final residual = 8.00518e-09, No Iterations 1
ExecutionTime = 1.48 s  ExecutionStepTime = 0.85 s  ClockTime = 1 s

Time = 13001

pseudoTime: iteration 148102
Pseudo Courant No: 3
Damped pseudo Courant No: Min: 3 Mean: 3 Max: 3
Pseudo deltaT: Min: 7.18591e-09 Mean: 2.91403e-06 Max: 8.80877e-05
Solving for (rho rhoU rhoE)
  GMRES iteration: 0   Residual: 3.80922e-06 (1.5864e-06 4.25621e-06 1.54137e-18) 5.68036e-06 
  GMRES iteration: 1   Residual: 8.37833e-09 (2.10571e-09 1.57463e-09 0) 7.73426e-09 
smoothSolver:  Solving for omega, Initial residual = 4.54521e-07, Final residual = 1.06372e-09, No Iterations 1
smoothSolver:  Solving for k, Initial residual = 2.58961e-07, Final residual = 7.95159e-09, No Iterations 1
ExecutionTime = 2.34 s  ExecutionStepTime = 0.86 s  ClockTime = 2 s

Time = 13001

pseudoTime: iteration 148103
Pseudo Courant No: 3
Damped pseudo Courant No: Min: 3 Mean: 3 Max: 3
Pseudo deltaT: Min: 7.18591e-09 Mean: 2.91403e-06 Max: 8.80919e-05
Solving for (rho rhoU rhoE)
  GMRES iteration: 0   Residual: 4.39819e-06 (8.79808e-07 1.85527e-06 1.54137e-18) 6.02904e-06 
  GMRES iteration: 1   Residual: 7.86636e-09 (2.18143e-09 1.52039e-09 0) 7.07868e-09 
smoothSolver:  Solving for omega, Initial residual = 2.18141e-07, Final residual = 8.29467e-10, No Iterations 1
smoothSolver:  Solving for k, Initial residual = 2.5509e-07, Final residual = 7.95878e-09, No Iterations 1
ExecutionTime = 3.18 s  ExecutionStepTime = 0.84 s  ClockTime = 3 s

Time = 13001

pseudoTime: iteration 148104
Pseudo Courant No: 3
Damped pseudo Courant No: Min: 3 Mean: 3 Max: 3
Pseudo deltaT: Min: 7.18591e-09 Mean: 2.91403e-06 Max: 8.809e-05
Solving for (rho rhoU rhoE)
  GMRES iteration: 0   Residual: 2.74065e-06 (6.5298e-07 1.55033e-06 1.54137e-18) 3.52197e-06 
  GMRES iteration: 1   Residual: 6.67838e-09 (2.12619e-09 1.43778e-09 0) 6.10327e-09 
smoothSolver:  Solving for omega, Initial residual = 1.20655e-07, Final residual = 6.40816e-10, No Iterations 1
smoothSolver:  Solving for k, Initial residual = 2.52925e-07, Final residual = 7.98023e-09, No Iterations 1
ExecutionTime = 4.1 s  ExecutionStepTime = 0.92 s  ClockTime = 4 s

Time = 13002

pseudoTime: iteration 148105
Pseudo Courant No: 3
Damped pseudo Courant No: Min: 3 Mean: 3 Max: 3
Pseudo deltaT: Min: 7.18591e-09 Mean: 2.91403e-06 Max: 8.80838e-05
Solving for (rho rhoU rhoE)
  GMRES iteration: 0   Residual: 1.88272e-06 (5.49276e-07 1.36075e-06 1.54137e-18) 2.32418e-06 
  GMRES iteration: 1   Residual: 6.74695e-09 (2.24498e-09 1.35186e-09 0) 6.12812e-09 
smoothSolver:  Solving for omega, Initial residual = 9.07668e-08, Final residual = 4.96361e-10, No Iterations 1
smoothSolver:  Solving for k, Initial residual = 2.51768e-07, Final residual = 8.0058e-09, No Iterations 1
ExecutionTime = 5.03 s  ExecutionStepTime = 0.93 s  ClockTime = 5 s

Time = 13002

pseudoTime: iteration 148106
Pseudo Courant No: 3
Damped pseudo Courant No: Min: 3 Mean: 3 Max: 3
Pseudo deltaT: Min: 7.18591e-09 Mean: 2.91403e-06 Max: 8.80922e-05
Solving for (rho rhoU rhoE)
  GMRES iteration: 0   Residual: 1.6094e-06 (5.10381e-07 1.2032e-06 1.54137e-18) 1.98689e-06 
  GMRES iteration: 1   Residual: 6.39339e-09 (2.25032e-09 1.28443e-09 0) 5.83731e-09 
smoothSolver:  Solving for omega, Initial residual = 7.30274e-08, Final residual = 3.88207e-10, No Iterations 1
smoothSolver:  Solving for k, Initial residual = 2.50811e-07, Final residual = 8.03307e-09, No Iterations 1
ExecutionTime = 5.94 s  ExecutionStepTime = 0.91 s  ClockTime = 6 s

Time = 13002

pseudoTime: iteration 148107
Pseudo Courant No: 3
Damped pseudo Courant No: Min: 3 Mean: 3 Max: 3
Pseudo deltaT: Min: 7.18591e-09 Mean: 2.91403e-06 Max: 8.80889e-05
Solving for (rho rhoU rhoE)
  GMRES iteration: 0   Residual: 1.43397e-06 (4.95512e-07 1.143e-06 1.54137e-18) 1.77525e-06 
  GMRES iteration: 1   Residual: 5.68367e-09 (1.9703e-09 1.19198e-09 0) 5.25458e-09 
smoothSolver:  Solving for omega, Initial residual = 6.07812e-08, Final residual = 3.07942e-10, No Iterations 1
smoothSolver:  Solving for k, Initial residual = 2.50471e-07, Final residual = 8.06065e-09, No Iterations 1
bounding k, min: -0.000442201 max: 10697.6 average: 1642.48
ExecutionTime = 6.8 s  ExecutionStepTime = 0.86 s  ClockTime = 6 s

Time = 13003

pseudoTime: iteration 148108
Pseudo Courant No: 3
Damped pseudo Courant No: Min: 3 Mean: 3 Max: 3
Pseudo deltaT: Min: 7.18591e-09 Mean: 2.91403e-06 Max: 8.80885e-05
Solving for (rho rhoU rhoE)
  GMRES iteration: 0   Residual: 1.35313e-06 (4.92632e-07 1.10944e-06 1.54138e-18) 1.68377e-06 
  GMRES iteration: 1   Residual: 5.93438e-09 (2.1374e-09 1.18221e-09 0) 5.44588e-09 
smoothSolver:  Solving for omega, Initial residual = 5.18654e-08, Final residual = 2.52275e-10, No Iterations 1
smoothSolver:  Solving for k, Initial residual = 6.31386e-07, Final residual = 8.09004e-09, No Iterations 1
ExecutionTime = 7.67 s  ExecutionStepTime = 0.87 s  ClockTime = 7 s

Time = 13003

pseudoTime: iteration 148109
Pseudo Courant No: 3
Damped pseudo Courant No: Min: 3 Mean: 3 Max: 3
Pseudo deltaT: Min: 7.18591e-09 Mean: 2.91403e-06 Max: 8.80899e-05
Solving for (rho rhoU rhoE)
  GMRES iteration: 0   Residual: 1.27565e-06 (4.91058e-07 1.09419e-06 1.54138e-18) 1.58372e-06 
  GMRES iteration: 1   Residual: 5.75267e-09 (2.06536e-09 1.14073e-09 0) 5.28896e-09 
smoothSolver:  Solving for omega, Initial residual = 4.49754e-08, Final residual = 2.14843e-10, No Iterations 1
smoothSolver:  Solving for k, Initial residual = 5.32565e-07, Final residual = 8.11703e-09, No Iterations 1
ExecutionTime = 8.6 s  ExecutionStepTime = 0.93 s  ClockTime = 8 s

Time = 13003

pseudoTime: iteration 148110
Pseudo Courant No: 3
Damped pseudo Courant No: Min: 3 Mean: 3 Max: 3
Pseudo deltaT: Min: 7.18591e-09 Mean: 2.91403e-06 Max: 8.80939e-05
Solving for (rho rhoU rhoE)
  GMRES iteration: 0   Residual: 1.25411e-06 (4.90746e-07 1.08286e-06 1.54138e-18) 1.55069e-06 
  GMRES iteration: 1   Residual: 5.96827e-09 (2.04737e-09 1.13344e-09 0) 5.46429e-09 
smoothSolver:  Solving for omega, Initial residual = 3.99472e-08, Final residual = 1.85469e-10, No Iterations 1
smoothSolver:  Solving for k, Initial residual = 4.5965e-07, Final residual = 8.14472e-09, No Iterations 1
ExecutionTime = 9.51 s  ExecutionStepTime = 0.91 s  ClockTime = 9 s

Time = 13004

pseudoTime: iteration 148111
Pseudo Courant No: 3
Damped pseudo Courant No: Min: 3 Mean: 3 Max: 3
Pseudo deltaT: Min: 7.18591e-09 Mean: 2.91403e-06 Max: 8.80842e-05
Solving for (rho rhoU rhoE)
  GMRES iteration: 0   Residual: 1.22824e-06 (4.9042e-07 1.08077e-06 1.54138e-18) 1.51867e-06 
  GMRES iteration: 1   Residual: 5.87989e-09 (2.12548e-09 1.13487e-09 0) 5.39215e-09 
smoothSolver:  Solving for omega, Initial residual = 3.57038e-08, Final residual = 1.61419e-10, No Iterations 1
smoothSolver:  Solving for k, Initial residual = 4.03177e-07, Final residual = 8.17254e-09, No Iterations 1
ExecutionTime = 10.41 s  ExecutionStepTime = 0.9 s  ClockTime = 10 s

Time = 13004

pseudoTime: iteration 148112
Pseudo Courant No: 3
Damped pseudo Courant No: Min: 3 Mean: 3 Max: 3
Pseudo deltaT: Min: 7.18591e-09 Mean: 2.91403e-06 Max: 8.80869e-05
Solving for (rho rhoU rhoE)
  GMRES iteration: 0   Residual: 1.21376e-06 (4.90424e-07 1.08121e-06 1.54138e-18) 1.49759e-06 
  GMRES iteration: 1   Residual: 5.73412e-09 (2.01818e-09 1.102e-09 0) 5.25551e-09 
smoothSolver:  Solving for omega, Initial residual = 3.21778e-08, Final residual = 1.41525e-10, No Iterations 1
smoothSolver:  Solving for k, Initial residual = 3.61009e-07, Final residual = 8.2011e-09, No Iterations 1
ExecutionTime = 11.32 s  ExecutionStepTime = 0.91 s  ClockTime = 11 s

Time = 13004

pseudoTime: iteration 148113
Pseudo Courant No: 3
Damped pseudo Courant No: Min: 3 Mean: 3 Max: 3
Pseudo deltaT: Min: 7.18591e-09 Mean: 2.91403e-06 Max: 8.80895e-05
Solving for (rho rhoU rhoE)
  GMRES iteration: 0   Residual: 1.20798e-06 (4.91149e-07 1.08468e-06 1.54138e-18) 1.49466e-06 
  GMRES iteration: 1   Residual: 5.76167e-09 (2.07692e-09 1.12547e-09 0) 5.30375e-09 
smoothSolver:  Solving for omega, Initial residual = 2.93373e-08, Final residual = 1.24769e-10, No Iterations 1
smoothSolver:  Solving for k, Initial residual = 3.45382e-07, Final residual = 8.23068e-09, No Iterations 1
ExecutionTime = 12.22 s  ExecutionStepTime = 0.9 s  ClockTime = 12 s

Time = 13005

pseudoTime: iteration 148114
Pseudo Courant No: 3
Damped pseudo Courant No: Min: 3 Mean: 3 Max: 3
Pseudo deltaT: Min: 7.18591e-09 Mean: 2.91403e-06 Max: 8.8086e-05
Solving for (rho rhoU rhoE)
  GMRES iteration: 0   Residual: 1.1886e-06 (4.89948e-07 1.08592e-06 1.54138e-18) 1.46651e-06 
  GMRES iteration: 1   Residual: 4.77155e-09 (1.66826e-09 1.11107e-09 0) 4.43924e-09 
smoothSolver:  Solving for omega, Initial residual = 2.68699e-08, Final residual = 1.1056e-10, No Iterations 1
smoothSolver:  Solving for k, Initial residual = 3.33972e-07, Final residual = 8.26122e-09, No Iterations 1
ExecutionTime = 13.11 s  ExecutionStepTime = 0.89 s  ClockTime = 13 s

Time = 13005

pseudoTime: iteration 148115
Pseudo Courant No: 3
Damped pseudo Courant No: Min: 3 Mean: 3 Max: 3
Pseudo deltaT: Min: 7.18591e-09 Mean: 2.91403e-06 Max: 8.80904e-05
Solving for (rho rhoU rhoE)
  GMRES iteration: 0   Residual: 1.20016e-06 (4.88759e-07 1.09268e-06 1.54138e-18) 1.48458e-06 
  GMRES iteration: 1   Residual: 5.26863e-09 (1.90648e-09 1.14244e-09 0) 4.88975e-09 
smoothSolver:  Solving for omega, Initial residual = 2.48575e-08, Final residual = 9.89373e-11, No Iterations 1
smoothSolver:  Solving for k, Initial residual = 3.20234e-07, Final residual = 8.29308e-09, No Iterations 1
ExecutionTime = 14.02 s  ExecutionStepTime = 0.91 s  ClockTime = 14 s

Time = 13005

pseudoTime: iteration 148116
Pseudo Courant No: 3
Damped pseudo Courant No: Min: 3 Mean: 3 Max: 3
Pseudo deltaT: Min: 7.18591e-09 Mean: 2.91403e-06 Max: 8.80871e-05
Solving for (rho rhoU rhoE)
  GMRES iteration: 0   Residual: 1.24711e-06 (4.87403e-07 1.10458e-06 1.54138e-18) 1.55518e-06 
  GMRES iteration: 1   Residual: 5.43306e-09 (1.98605e-09 1.15272e-09 0) 5.03929e-09 
smoothSolver:  Solving for omega, Initial residual = 2.31727e-08, Final residual = 8.95421e-11, No Iterations 1
smoothSolver:  Solving for k, Initial residual = 3.13423e-07, Final residual = 8.32611e-09, No Iterations 1
ExecutionTime = 14.87 s  ExecutionStepTime = 0.85 s  ClockTime = 15 s

Time = 13006

pseudoTime: iteration 148117
Pseudo Courant No: 3
Damped pseudo Courant No: Min: 3 Mean: 3 Max: 3
Pseudo deltaT: Min: 7.18591e-09 Mean: 2.91403e-06 Max: 8.80863e-05
Solving for (rho rhoU rhoE)
  GMRES iteration: 0   Residual: 1.23988e-06 (4.82848e-07 1.11401e-06 1.54138e-18) 1.53551e-06 
  GMRES iteration: 1   Residual: 4.7937e-09 (1.68263e-09 1.1429e-09 0) 4.51185e-09 
smoothSolver:  Solving for omega, Initial residual = 2.18309e-08, Final residual = 8.15231e-11, No Iterations 1
smoothSolver:  Solving for k, Initial residual = 3.07421e-07, Final residual = 8.35955e-09, No Iterations 1
ExecutionTime = 15.76 s  ExecutionStepTime = 0.89 s  ClockTime = 15 s

Time = 13006

pseudoTime: iteration 148118
Pseudo Courant No: 3
Damped pseudo Courant No: Min: 3 Mean: 3 Max: 3
Pseudo deltaT: Min: 7.18591e-09 Mean: 2.91403e-06 Max: 8.80871e-05
Solving for (rho rhoU rhoE)
  GMRES iteration: 0   Residual: 1.25289e-06 (4.78673e-07 1.11392e-06 1.54138e-18) 1.55391e-06 
  GMRES iteration: 1   Residual: 5.73396e-09 (2.01871e-09 1.14304e-09 0) 5.34117e-09 
smoothSolver:  Solving for omega, Initial residual = 2.05498e-08, Final residual = 7.45364e-11, No Iterations 1
smoothSolver:  Solving for k, Initial residual = 3.00928e-07, Final residual = 8.39423e-09, No Iterations 1
ExecutionTime = 16.62 s  ExecutionStepTime = 0.86 s  ClockTime = 16 s

Time = 13006

pseudoTime: iteration 148119
Pseudo Courant No: 3
Damped pseudo Courant No: Min: 3 Mean: 3 Max: 3
Pseudo deltaT: Min: 7.18591e-09 Mean: 2.91403e-06 Max: 8.80902e-05
Solving for (rho rhoU rhoE)
  GMRES iteration: 0   Residual: 1.26274e-06 (4.73229e-07 1.12132e-06 1.54138e-18) 1.55784e-06 
  GMRES iteration: 1   Residual: 5.20565e-09 (1.84897e-09 1.21327e-09 0) 4.89343e-09 
smoothSolver:  Solving for omega, Initial residual = 1.94866e-08, Final residual = 6.85185e-11, No Iterations 1
smoothSolver:  Solving for k, Initial residual = 2.96616e-07, Final residual = 8.42925e-09, No Iterations 1
ExecutionTime = 17.51 s  ExecutionStepTime = 0.89 s  ClockTime = 17 s

Time = 13007

pseudoTime: iteration 148120
Pseudo Courant No: 3
Damped pseudo Courant No: Min: 3 Mean: 3 Max: 3
Pseudo deltaT: Min: 7.18591e-09 Mean: 2.91403e-06 Max: 8.80909e-05
Solving for (rho rhoU rhoE)
  GMRES iteration: 0   Residual: 1.29172e-06 (4.69021e-07 1.12255e-06 1.54138e-18) 1.59794e-06 
  GMRES iteration: 1   Residual: 5.96311e-09 (2.10303e-09 1.20023e-09 0) 5.53651e-09 
smoothSolver:  Solving for omega, Initial residual = 1.85297e-08, Final residual = 6.31895e-11, No Iterations 1
smoothSolver:  Solving for k, Initial residual = 2.9356e-07, Final residual = 8.46542e-09, No Iterations 1
ExecutionTime = 18.4 s  ExecutionStepTime = 0.89 s  ClockTime = 18 s

Time = 13007

pseudoTime: iteration 148121
Pseudo Courant No: 3
Damped pseudo Courant No: Min: 3 Mean: 3 Max: 3
Pseudo deltaT: Min: 7.18591e-09 Mean: 2.91403e-06 Max: 8.80858e-05
Solving for (rho rhoU rhoE)
  GMRES iteration: 0   Residual: 1.27123e-06 (4.5867e-07 1.12352e-06 1.54138e-18) 1.57255e-06 
  GMRES iteration: 1   Residual: 5.68177e-09 (2.02078e-09 1.23442e-09 0) 5.26895e-09 
smoothSolver:  Solving for omega, Initial residual = 1.77807e-08, Final residual = 5.84623e-11, No Iterations 1
smoothSolver:  Solving for k, Initial residual = 2.88967e-07, Final residual = 8.50199e-09, No Iterations 1
ExecutionTime = 19.3 s  ExecutionStepTime = 0.9 s  ClockTime = 19 s

Time = 13007

pseudoTime: iteration 148122
Pseudo Courant No: 3
Damped pseudo Courant No: Min: 3 Mean: 3 Max: 3
Pseudo deltaT: Min: 7.18591e-09 Mean: 2.91403e-06 Max: 8.80859e-05
Solving for (rho rhoU rhoE)
  GMRES iteration: 0   Residual: 1.30218e-06 (4.50812e-07 1.11652e-06 1.54138e-18) 1.60892e-06 
  GMRES iteration: 1   Residual: 5.91178e-09 (2.03902e-09 1.21979e-09 0) 5.45848e-09 
smoothSolver:  Solving for omega, Initial residual = 1.70919e-08, Final residual = 5.43735e-11, No Iterations 1
smoothSolver:  Solving for k, Initial residual = 2.87205e-07, Final residual = 8.53952e-09, No Iterations 1
ExecutionTime = 20.19 s  ExecutionStepTime = 0.89 s  ClockTime = 20 s

Time = 13008

pseudoTime: iteration 148123
Pseudo Courant No: 3
Damped pseudo Courant No: Min: 3 Mean: 3 Max: 3
Pseudo deltaT: Min: 7.18591e-09 Mean: 2.91403e-06 Max: 8.80889e-05
Solving for (rho rhoU rhoE)
  GMRES iteration: 0   Residual: 1.32662e-06 (4.44961e-07 1.12027e-06 1.54139e-18) 1.62811e-06 
  GMRES iteration: 1   Residual: 5.81759e-09 (1.98879e-09 1.23995e-09 0) 5.36553e-09 
smoothSolver:  Solving for omega, Initial residual = 1.64738e-08, Final residual = 5.07863e-11, No Iterations 1
smoothSolver:  Solving for k, Initial residual = 2.84609e-07, Final residual = 8.57751e-09, No Iterations 1
ExecutionTime = 21.07 s  ExecutionStepTime = 0.88 s  ClockTime = 21 s

Time = 13008

pseudoTime: iteration 148124
Pseudo Courant No: 3
Damped pseudo Courant No: Min: 3 Mean: 3 Max: 3
Pseudo deltaT: Min: 7.18591e-09 Mean: 2.91403e-06 Max: 8.80913e-05
Solving for (rho rhoU rhoE)
  GMRES iteration: 0   Residual: 1.32615e-06 (4.42969e-07 1.12009e-06 1.54139e-18) 1.63184e-06 
  GMRES iteration: 1   Residual: 6.39125e-09 (1.75701e-09 1.09497e-09 0) 5.90126e-09 
smoothSolver:  Solving for omega, Initial residual = 1.60343e-08, Final residual = 4.76503e-11, No Iterations 1
smoothSolver:  Solving for k, Initial residual = 2.82159e-07, Final residual = 8.61671e-09, No Iterations 1
ExecutionTime = 21.9 s  ExecutionStepTime = 0.83 s  ClockTime = 22 s

Time = 13008

pseudoTime: iteration 148125
Pseudo Courant No: 3
Damped pseudo Courant No: Min: 3 Mean: 3 Max: 3
Pseudo deltaT: Min: 7.18591e-09 Mean: 2.91403e-06 Max: 8.80863e-05
Solving for (rho rhoU rhoE)
  GMRES iteration: 0   Residual: 1.29889e-06 (4.28775e-07 1.11594e-06 1.54139e-18) 1.58809e-06 
  GMRES iteration: 1   Residual: 6.41877e-09 (2.1344e-09 1.31386e-09 0) 5.84502e-09 
smoothSolver:  Solving for omega, Initial residual = 1.56639e-08, Final residual = 4.49875e-11, No Iterations 1
smoothSolver:  Solving for k, Initial residual = 2.80809e-07, Final residual = 8.65559e-09, No Iterations 1
ExecutionTime = 22.82 s  ExecutionStepTime = 0.92 s  ClockTime = 23 s

Time = 13009

pseudoTime: iteration 148126
Pseudo Courant No: 3
Damped pseudo Courant No: Min: 3 Mean: 3 Max: 3
Pseudo deltaT: Min: 7.18591e-09 Mean: 2.91403e-06 Max: 8.80885e-05
Solving for (rho rhoU rhoE)
  GMRES iteration: 0   Residual: 1.34499e-06 (4.19141e-07 1.11135e-06 1.54139e-18) 1.64997e-06 
  GMRES iteration: 1   Residual: 6.34604e-09 (2.06317e-09 1.33713e-09 0) 5.79135e-09 
smoothSolver:  Solving for omega, Initial residual = 1.53972e-08, Final residual = 4.2787e-11, No Iterations 1
smoothSolver:  Solving for k, Initial residual = 2.79294e-07, Final residual = 8.69547e-09, No Iterations 1
ExecutionTime = 23.73 s  ExecutionStepTime = 0.91 s  ClockTime = 23 s

Time = 13009

pseudoTime: iteration 148127
Pseudo Courant No: 3
Damped pseudo Courant No: Min: 3 Mean: 3 Max: 3
Pseudo deltaT: Min: 7.18591e-09 Mean: 2.91403e-06 Max: 8.80859e-05
Solving for (rho rhoU rhoE)
  GMRES iteration: 0   Residual: 1.30859e-06 (4.13488e-07 1.1181e-06 1.54139e-18) 1.59455e-06 
  GMRES iteration: 1   Residual: 6.50931e-09 (2.05903e-09 1.3427e-09 0) 5.88017e-09 
smoothSolver:  Solving for omega, Initial residual = 1.52099e-08, Final residual = 4.08788e-11, No Iterations 1
smoothSolver:  Solving for k, Initial residual = 2.77861e-07, Final residual = 8.73591e-09, No Iterations 1
ExecutionTime = 24.65 s  ExecutionStepTime = 0.92 s  ClockTime = 24 s

Time = 13009

pseudoTime: iteration 148128
Pseudo Courant No: 3
Damped pseudo Courant No: Min: 3 Mean: 3 Max: 3
Pseudo deltaT: Min: 7.18591e-09 Mean: 2.91403e-06 Max: 8.80899e-05
Solving for (rho rhoU rhoE)
  GMRES iteration: 0   Residual: 1.362e-06 (4.07687e-07 1.11451e-06 1.54139e-18) 1.66364e-06 
  GMRES iteration: 1   Residual: 6.60091e-09 (2.03421e-09 1.36991e-09 0) 5.981e-09 
smoothSolver:  Solving for omega, Initial residual = 1.49254e-08, Final residual = 3.91398e-11, No Iterations 1
smoothSolver:  Solving for k, Initial residual = 2.7717e-07, Final residual = 8.77665e-09, No Iterations 1
ExecutionTime = 25.59 s  ExecutionStepTime = 0.94 s  ClockTime = 25 s

Time = 13010

pseudoTime: iteration 148129
Pseudo Courant No: 3
Damped pseudo Courant No: Min: 3 Mean: 3 Max: 3
Pseudo deltaT: Min: 7.18591e-09 Mean: 2.91403e-06 Max: 8.80864e-05
Solving for (rho rhoU rhoE)
  GMRES iteration: 0   Residual: 1.31841e-06 (4.0302e-07 1.12625e-06 1.54139e-18) 1.59649e-06 
  GMRES iteration: 1   Residual: 6.9802e-09 (1.98913e-09 1.32854e-09 0) 6.26338e-09 
smoothSolver:  Solving for omega, Initial residual = 1.46234e-08, Final residual = 3.74313e-11, No Iterations 1
smoothSolver:  Solving for k, Initial residual = 2.75818e-07, Final residual = 8.81781e-09, No Iterations 1
ExecutionTime = 26.53 s  ExecutionStepTime = 0.94 s  ClockTime = 26 s

Time = 13010

pseudoTime: iteration 148130
Pseudo Courant No: 3
Damped pseudo Courant No: Min: 3 Mean: 3 Max: 3
Pseudo deltaT: Min: 7.18591e-09 Mean: 2.91403e-06 Max: 8.80869e-05
Solving for (rho rhoU rhoE)
  GMRES iteration: 0   Residual: 1.3211e-06 (3.93034e-07 1.11991e-06 1.54139e-18) 1.59807e-06 
  GMRES iteration: 1   Residual: 6.3758e-09 (1.8693e-09 1.37539e-09 0) 5.7957e-09 
smoothSolver:  Solving for omega, Initial residual = 1.4244e-08, Final residual = 3.5786e-11, No Iterations 1
smoothSolver:  Solving for k, Initial residual = 2.75642e-07, Final residual = 8.85881e-09, No Iterations 1
ExecutionTime = 27.49 s  ExecutionStepTime = 0.96 s  ClockTime = 27 s

Time = 13010

pseudoTime: iteration 148131
Pseudo Courant No: 3
Damped pseudo Courant No: Min: 3 Mean: 3 Max: 3
Pseudo deltaT: Min: 7.18591e-09 Mean: 2.91403e-06 Max: 8.80899e-05
Solving for (rho rhoU rhoE)
  GMRES iteration: 0   Residual: 1.31671e-06 (3.9013e-07 1.1226e-06 1.54139e-18) 1.59202e-06 
  GMRES iteration: 1   Residual: 7.25686e-09 (1.97008e-09 1.37501e-09 0) 6.49323e-09 
smoothSolver:  Solving for omega, Initial residual = 1.38683e-08, Final residual = 3.42112e-11, No Iterations 1
smoothSolver:  Solving for k, Initial residual = 2.74971e-07, Final residual = 8.90041e-09, No Iterations 1
ExecutionTime = 28.37 s  ExecutionStepTime = 0.88 s  ClockTime = 28 s

Time = 13011

pseudoTime: iteration 148132
Pseudo Courant No: 3
Damped pseudo Courant No: Min: 3 Mean: 3 Max: 3
Pseudo deltaT: Min: 7.18591e-09 Mean: 2.91403e-06 Max: 8.80884e-05
Solving for (rho rhoU rhoE)
  GMRES iteration: 0   Residual: 1.2647e-06 (3.81621e-07 1.12442e-06 1.54139e-18) 1.52257e-06 
  GMRES iteration: 1   Residual: 7.61192e-09 (2.15177e-09 1.51728e-09 0) 6.77887e-09 
smoothSolver:  Solving for omega, Initial residual = 1.35795e-08, Final residual = 3.27792e-11, No Iterations 1
smoothSolver:  Solving for k, Initial residual = 2.74734e-07, Final residual = 8.94193e-09, No Iterations 1
ExecutionTime = 29.27 s  ExecutionStepTime = 0.9 s  ClockTime = 29 s

Time = 13011

pseudoTime: iteration 148133
Pseudo Courant No: 3
Damped pseudo Courant No: Min: 3 Mean: 3 Max: 3
Pseudo deltaT: Min: 7.18591e-09 Mean: 2.91403e-06 Max: 8.80827e-05
Solving for (rho rhoU rhoE)
  GMRES iteration: 0   Residual: 1.28614e-06 (3.75688e-07 1.11886e-06 1.54139e-18) 1.54335e-06 
  GMRES iteration: 1   Residual: 7.68684e-09 (2.08665e-09 1.48688e-09 0) 6.80699e-09 
smoothSolver:  Solving for omega, Initial residual = 1.33655e-08, Final residual = 3.14739e-11, No Iterations 1
smoothSolver:  Solving for k, Initial residual = 2.74499e-07, Final residual = 8.98344e-09, No Iterations 1
ExecutionTime = 30.09 s  ExecutionStepTime = 0.82 s  ClockTime = 30 s

Time = 13011

pseudoTime: iteration 148134
Pseudo Courant No: 3
Damped pseudo Courant No: Min: 3 Mean: 3 Max: 3
Pseudo deltaT: Min: 7.18591e-09 Mean: 2.91403e-06 Max: 8.80904e-05
Solving for (rho rhoU rhoE)
  GMRES iteration: 0   Residual: 1.24669e-06 (3.70891e-07 1.12498e-06 1.54139e-18) 1.49207e-06 
  GMRES iteration: 1   Residual: 7.62095e-09 (2.04153e-09 1.48616e-09 0) 6.73512e-09 
smoothSolver:  Solving for omega, Initial residual = 1.31113e-08, Final residual = 3.02483e-11, No Iterations 1
smoothSolver:  Solving for k, Initial residual = 2.74306e-07, Final residual = 9.02463e-09, No Iterations 1
ExecutionTime = 30.82 s  ExecutionStepTime = 0.73 s  ClockTime = 31 s

Time = 13012

pseudoTime: iteration 148135
Pseudo Courant No: 3
Damped pseudo Courant No: Min: 3 Mean: 3 Max: 3
Pseudo deltaT: Min: 7.18591e-09 Mean: 2.91403e-06 Max: 8.8094e-05
Solving for (rho rhoU rhoE)
  GMRES iteration: 0   Residual: 1.22383e-06 (3.67084e-07 1.11972e-06 1.54139e-18) 1.46437e-06 
  GMRES iteration: 1   Residual: 8.01714e-09 (2.12904e-09 1.54174e-09 0) 7.05417e-09 
smoothSolver:  Solving for omega, Initial residual = 1.27571e-08, Final residual = 2.90696e-11, No Iterations 1
smoothSolver:  Solving for k, Initial residual = 2.74388e-07, Final residual = 9.06525e-09, No Iterations 1
ExecutionTime = 31.77 s  ExecutionStepTime = 0.95 s  ClockTime = 31 s

Time = 13012

pseudoTime: iteration 148136
Pseudo Courant No: 3
Damped pseudo Courant No: Min: 3 Mean: 3 Max: 3
Pseudo deltaT: Min: 7.1859e-09 Mean: 2.91403e-06 Max: 8.80899e-05
Solving for (rho rhoU rhoE)
  GMRES iteration: 0   Residual: 1.21991e-06 (3.61967e-07 1.11822e-06 1.54139e-18) 1.45721e-06 
  GMRES iteration: 1   Residual: 6.15635e-09 (1.64516e-09 1.43544e-09 0) 5.57107e-09 
smoothSolver:  Solving for omega, Initial residual = 1.25163e-08, Final residual = 2.80154e-11, No Iterations 1
smoothSolver:  Solving for k, Initial residual = 2.7427e-07, Final residual = 9.10476e-09, No Iterations 1
ExecutionTime = 32.69 s  ExecutionStepTime = 0.92 s  ClockTime = 32 s

Time = 13012

pseudoTime: iteration 148137
Pseudo Courant No: 3
Damped pseudo Courant No: Min: 3 Mean: 3 Max: 3
Pseudo deltaT: Min: 7.1859e-09 Mean: 2.91403e-06 Max: 8.80874e-05
Solving for (rho rhoU rhoE)
  GMRES iteration: 0   Residual: 1.18442e-06 (3.60676e-07 1.11659e-06 1.54139e-18) 1.40699e-06 
  GMRES iteration: 1   Residual: 7.46817e-09 (2.00324e-09 1.52158e-09 0) 6.57768e-09 
smoothSolver:  Solving for omega, Initial residual = 1.23191e-08, Final residual = 2.70015e-11, No Iterations 1
smoothSolver:  Solving for k, Initial residual = 2.74541e-07, Final residual = 9.14345e-09, No Iterations 1
bounding k, min: -0.000437723 max: 10698.1 average: 1642.55
ExecutionTime = 33.61 s  ExecutionStepTime = 0.92 s  ClockTime = 33 s

Time = 13013

pseudoTime: iteration 148138
Pseudo Courant No: 3
Damped pseudo Courant No: Min: 3 Mean: 3 Max: 3
Pseudo deltaT: Min: 7.1859e-09 Mean: 2.91403e-06 Max: 8.80864e-05
Solving for (rho rhoU rhoE)
  GMRES iteration: 0   Residual: 1.16214e-06 (3.58246e-07 1.1118e-06 1.54139e-18) 1.38083e-06 
  GMRES iteration: 1   Residual: 7.94789e-09 (2.12029e-09 1.57359e-09 0) 6.93176e-09 
smoothSolver:  Solving for omega, Initial residual = 1.20633e-08, Final residual = 2.60488e-11, No Iterations 1
smoothSolver:  Solving for k, Initial residual = 6.55892e-07, Final residual = 9.1822e-09, No Iterations 1
ExecutionTime = 34.57 s  ExecutionStepTime = 0.96 s  ClockTime = 34 s

Time = 13013

pseudoTime: iteration 148139
Pseudo Courant No: 3
Damped pseudo Courant No: Min: 3 Mean: 3 Max: 3
Pseudo deltaT: Min: 7.1859e-09 Mean: 2.91403e-06 Max: 8.80895e-05
Solving for (rho rhoU rhoE)
  GMRES iteration: 0   Residual: 1.15133e-06 (3.58313e-07 1.11183e-06 1.54139e-18) 1.36465e-06 
  GMRES iteration: 1   Residual: 8.15277e-09 (2.15505e-09 1.59579e-09 0) 7.08211e-09 
smoothSolver:  Solving for omega, Initial residual = 1.1766e-08, Final residual = 2.51548e-11, No Iterations 1
smoothSolver:  Solving for k, Initial residual = 5.57476e-07, Final residual = 9.21699e-09, No Iterations 1
ExecutionTime = 35.48 s  ExecutionStepTime = 0.91 s  ClockTime = 35 s

Time = 13013

pseudoTime: iteration 148140
Pseudo Courant No: 3
Damped pseudo Courant No: Min: 3 Mean: 3 Max: 3
Pseudo deltaT: Min: 7.1859e-09 Mean: 2.91403e-06 Max: 8.80917e-05
Solving for (rho rhoU rhoE)
  GMRES iteration: 0   Residual: 1.11609e-06 (3.58134e-07 1.10684e-06 1.54139e-18) 1.31721e-06 
  GMRES iteration: 1   Residual: 7.86291e-09 (2.1091e-09 1.58406e-09 0) 6.80097e-09 
smoothSolver:  Solving for omega, Initial residual = 1.14267e-08, Final residual = 2.42677e-11, No Iterations 1
smoothSolver:  Solving for k, Initial residual = 4.84887e-07, Final residual = 9.25019e-09, No Iterations 1
ExecutionTime = 36.3 s  ExecutionStepTime = 0.82 s  ClockTime = 36 s

Time = 13014

pseudoTime: iteration 148141
Pseudo Courant No: 3
Damped pseudo Courant No: Min: 3 Mean: 3 Max: 3
Pseudo deltaT: Min: 7.1859e-09 Mean: 2.91403e-06 Max: 8.80916e-05
Solving for (rho rhoU rhoE)
  GMRES iteration: 0   Residual: 1.06455e-06 (3.55259e-07 1.1026e-06 1.54139e-18) 1.25342e-06 
  GMRES iteration: 1   Residual: 7.68361e-09 (2.12838e-09 1.62177e-09 0) 6.62194e-09 
smoothSolver:  Solving for omega, Initial residual = 1.1144e-08, Final residual = 2.34547e-11, No Iterations 1
smoothSolver:  Solving for k, Initial residual = 4.2868e-07, Final residual = 9.28146e-09, No Iterations 1
ExecutionTime = 37.21 s  ExecutionStepTime = 0.91 s  ClockTime = 37 s

Time = 13014

pseudoTime: iteration 148142
Pseudo Courant No: 3
Damped pseudo Courant No: Min: 3 Mean: 3 Max: 3
Pseudo deltaT: Min: 7.1859e-09 Mean: 2.91403e-06 Max: 8.80905e-05
Solving for (rho rhoU rhoE)
  GMRES iteration: 0   Residual: 1.11202e-06 (3.5637e-07 1.09556e-06 1.54139e-18) 1.30392e-06 
  GMRES iteration: 1   Residual: 7.10387e-09 (1.96661e-09 1.57978e-09 0) 6.12775e-09 
smoothSolver:  Solving for omega, Initial residual = 1.10388e-08, Final residual = 2.27319e-11, No Iterations 1
smoothSolver:  Solving for k, Initial residual = 3.86628e-07, Final residual = 9.31104e-09, No Iterations 1
ExecutionTime = 38.08 s  ExecutionStepTime = 0.87 s  ClockTime = 38 s

Time = 13014

pseudoTime: iteration 148143
Pseudo Courant No: 3
Damped pseudo Courant No: Min: 3 Mean: 3 Max: 3
Pseudo deltaT: Min: 7.1859e-09 Mean: 2.91403e-06 Max: 8.80891e-05
Solving for (rho rhoU rhoE)
  GMRES iteration: 0   Residual: 1.05373e-06 (3.59474e-07 1.10106e-06 1.54139e-18) 1.22226e-06 
  GMRES iteration: 1   Residual: 7.96008e-09 (2.16181e-09 1.6404e-09 0) 6.82552e-09 
smoothSolver:  Solving for omega, Initial residual = 1.07448e-08, Final residual = 2.20457e-11, No Iterations 1
smoothSolver:  Solving for k, Initial residual = 3.71077e-07, Final residual = 9.33897e-09, No Iterations 1
ExecutionTime = 38.95 s  ExecutionStepTime = 0.87 s  ClockTime = 39 s

Time = 13015

pseudoTime: iteration 148144
Pseudo Courant No: 3
Damped pseudo Courant No: Min: 3 Mean: 3 Max: 3
Pseudo deltaT: Min: 7.1859e-09 Mean: 2.91403e-06 Max: 8.80844e-05
Solving for (rho rhoU rhoE)
  GMRES iteration: 0   Residual: 1.04884e-06 (3.5521e-07 1.09068e-06 1.54139e-18) 1.22248e-06 
  GMRES iteration: 1   Residual: 7.72262e-09 (2.1912e-09 1.69858e-09 0) 6.585e-09 
smoothSolver:  Solving for omega, Initial residual = 1.06157e-08, Final residual = 2.1417e-11, No Iterations 1
smoothSolver:  Solving for k, Initial residual = 3.59642e-07, Final residual = 9.36529e-09, No Iterations 1
ExecutionTime = 39.79 s  ExecutionStepTime = 0.84 s  ClockTime = 40 s

Time = 13015

pseudoTime: iteration 148145
Pseudo Courant No: 3
Damped pseudo Courant No: Min: 3 Mean: 3 Max: 3
Pseudo deltaT: Min: 7.1859e-09 Mean: 2.91403e-06 Max: 8.80893e-05
Solving for (rho rhoU rhoE)
  GMRES iteration: 0   Residual: 1.01794e-06 (3.56009e-07 1.08922e-06 1.54139e-18) 1.18672e-06 
  GMRES iteration: 1   Residual: 7.55027e-09 (2.1188e-09 1.65439e-09 0) 6.42648e-09 
smoothSolver:  Solving for omega, Initial residual = 1.04113e-08, Final residual = 2.08874e-11, No Iterations 1
smoothSolver:  Solving for k, Initial residual = 3.45825e-07, Final residual = 9.38998e-09, No Iterations 1
ExecutionTime = 40.62 s  ExecutionStepTime = 0.83 s  ClockTime = 40 s

Time = 13015

pseudoTime: iteration 148146
Pseudo Courant No: 3
Damped pseudo Courant No: Min: 3 Mean: 3 Max: 3
Pseudo deltaT: Min: 7.1859e-09 Mean: 2.91403e-06 Max: 8.80935e-05
Solving for (rho rhoU rhoE)
  GMRES iteration: 0   Residual: 1.03632e-06 (3.58893e-07 1.08351e-06 1.54139e-18) 1.20373e-06 
  GMRES iteration: 1   Residual: 6.47629e-09 (1.86916e-09 1.59749e-09 0) 5.50433e-09 
smoothSolver:  Solving for omega, Initial residual = 1.02788e-08, Final residual = 2.04219e-11, No Iterations 1
smoothSolver:  Solving for k, Initial residual = 3.38802e-07, Final residual = 9.41318e-09, No Iterations 1
ExecutionTime = 41.51 s  ExecutionStepTime = 0.89 s  ClockTime = 41 s

Time = 13016

pseudoTime: iteration 148147
Pseudo Courant No: 3
Damped pseudo Courant No: Min: 3 Mean: 3 Max: 3
Pseudo deltaT: Min: 7.1859e-09 Mean: 2.91403e-06 Max: 8.80898e-05
Solving for (rho rhoU rhoE)
  GMRES iteration: 0   Residual: 1.04122e-06 (3.63026e-07 1.08865e-06 1.54139e-18) 1.21614e-06 
  GMRES iteration: 1   Residual: 7.90452e-09 (1.87672e-09 1.40502e-09 0) 6.84675e-09 
smoothSolver:  Solving for omega, Initial residual = 1.02497e-08, Final residual = 2.00237e-11, No Iterations 1
smoothSolver:  Solving for k, Initial residual = 3.32603e-07, Final residual = 9.4357e-09, No Iterations 1
ExecutionTime = 42.34 s  ExecutionStepTime = 0.83 s  ClockTime = 42 s

Time = 13016

pseudoTime: iteration 148148
Pseudo Courant No: 3
Damped pseudo Courant No: Min: 3 Mean: 3 Max: 3
Pseudo deltaT: Min: 7.1859e-09 Mean: 2.91403e-06 Max: 8.80834e-05
Solving for (rho rhoU rhoE)
  GMRES iteration: 0   Residual: 1.03441e-06 (3.60673e-07 1.08592e-06 1.54139e-18) 1.20326e-06 
  GMRES iteration: 1   Residual: 7.54288e-09 (2.16581e-09 1.74474e-09 0) 6.36303e-09 
smoothSolver:  Solving for omega, Initial residual = 1.01635e-08, Final residual = 1.9743e-11, No Iterations 1
smoothSolver:  Solving for k, Initial residual = 3.25785e-07, Final residual = 9.45709e-09, No Iterations 1
ExecutionTime = 43.15 s  ExecutionStepTime = 0.81 s  ClockTime = 43 s

Time = 13016

pseudoTime: iteration 148149
Pseudo Courant No: 3
Damped pseudo Courant No: Min: 3 Mean: 3 Max: 3
Pseudo deltaT: Min: 7.1859e-09 Mean: 2.91403e-06 Max: 8.80921e-05
Solving for (rho rhoU rhoE)
  GMRES iteration: 0   Residual: 1.01618e-06 (3.60366e-07 1.08375e-06 1.54139e-18) 1.18556e-06 
  GMRES iteration: 1   Residual: 7.33585e-09 (2.11729e-09 1.73942e-09 0) 6.17158e-09 
smoothSolver:  Solving for omega, Initial residual = 1.01463e-08, Final residual = 1.95442e-11, No Iterations 1
smoothSolver:  Solving for k, Initial residual = 3.2117e-07, Final residual = 9.47784e-09, No Iterations 1
ExecutionTime = 44.03 s  ExecutionStepTime = 0.88 s  ClockTime = 44 s

Time = 13017

pseudoTime: iteration 148150
Pseudo Courant No: 3
Damped pseudo Courant No: Min: 3 Mean: 3 Max: 3
Pseudo deltaT: Min: 7.1859e-09 Mean: 2.91403e-06 Max: 8.80914e-05
Solving for (rho rhoU rhoE)
  GMRES iteration: 0   Residual: 1.02626e-06 (3.58952e-07 1.08361e-06 1.54139e-18) 1.21489e-06 
  GMRES iteration: 1   Residual: 7.09139e-09 (2.04084e-09 1.72392e-09 0) 5.96704e-09 
smoothSolver:  Solving for omega, Initial residual = 1.02038e-08, Final residual = 1.94275e-11, No Iterations 1
smoothSolver:  Solving for k, Initial residual = 3.17726e-07, Final residual = 9.49799e-09, No Iterations 1
ExecutionTime = 44.93 s  ExecutionStepTime = 0.9 s  ClockTime = 45 s

Time = 13017

pseudoTime: iteration 148151
Pseudo Courant No: 3
Damped pseudo Courant No: Min: 3 Mean: 3 Max: 3
Pseudo deltaT: Min: 7.1859e-09 Mean: 2.91403e-06 Max: 8.80895e-05
Solving for (rho rhoU rhoE)
  GMRES iteration: 0   Residual: 1.00768e-06 (3.59504e-07 1.08646e-06 1.54139e-18) 1.19106e-06 
  GMRES iteration: 1   Residual: 7.16554e-09 (2.04371e-09 1.71722e-09 0) 6.02493e-09 
smoothSolver:  Solving for omega, Initial residual = 1.02123e-08, Final residual = 1.93137e-11, No Iterations 1
smoothSolver:  Solving for k, Initial residual = 3.12738e-07, Final residual = 9.51776e-09, No Iterations 1
ExecutionTime = 45.78 s  ExecutionStepTime = 0.85 s  ClockTime = 46 s

Time = 13017

pseudoTime: iteration 148152
Pseudo Courant No: 3
Damped pseudo Courant No: Min: 3 Mean: 3 Max: 3
Pseudo deltaT: Min: 7.1859e-09 Mean: 2.91403e-06 Max: 8.80883e-05
Solving for (rho rhoU rhoE)
  GMRES iteration: 0   Residual: 1.02817e-06 (3.59218e-07 1.08337e-06 1.54139e-18) 1.22205e-06 
  GMRES iteration: 1   Residual: 7.20285e-09 (2.05242e-09 1.73689e-09 0) 6.08095e-09 
smoothSolver:  Solving for omega, Initial residual = 1.02851e-08, Final residual = 1.92688e-11, No Iterations 1
smoothSolver:  Solving for k, Initial residual = 3.105e-07, Final residual = 9.53699e-09, No Iterations 1
ExecutionTime = 46.62 s  ExecutionStepTime = 0.84 s  ClockTime = 46 s

Time = 13018

pseudoTime: iteration 148153
Pseudo Courant No: 3
Damped pseudo Courant No: Min: 3 Mean: 3 Max: 3
Pseudo deltaT: Min: 7.1859e-09 Mean: 2.91403e-06 Max: 8.80905e-05
Solving for (rho rhoU rhoE)
  GMRES iteration: 0   Residual: 1.00343e-06 (3.58578e-07 1.08875e-06 1.54139e-18) 1.20218e-06 
  GMRES iteration: 1   Residual: 7.21911e-09 (2.05672e-09 1.72168e-09 0) 6.09877e-09 
smoothSolver:  Solving for omega, Initial residual = 1.02659e-08, Final residual = 1.9163e-11, No Iterations 1
smoothSolver:  Solving for k, Initial residual = 3.07481e-07, Final residual = 9.55568e-09, No Iterations 1
ExecutionTime = 47.49 s  ExecutionStepTime = 0.87 s  ClockTime = 47 s

Time = 13018

pseudoTime: iteration 148154
Pseudo Courant No: 3
Damped pseudo Courant No: Min: 3 Mean: 3 Max: 3
Pseudo deltaT: Min: 7.1859e-09 Mean: 2.91403e-06 Max: 8.80864e-05
Solving for (rho rhoU rhoE)
  GMRES iteration: 0   Residual: 1.01734e-06 (3.56471e-07 1.08646e-06 1.54139e-18) 1.21835e-06 
  GMRES iteration: 1   Residual: 6.68154e-09 (1.89486e-09 1.63575e-09 0) 5.66223e-09 
smoothSolver:  Solving for omega, Initial residual = 1.02505e-08, Final residual = 1.90502e-11, No Iterations 1
smoothSolver:  Solving for k, Initial residual = 3.04487e-07, Final residual = 9.5739e-09, No Iterations 1
ExecutionTime = 48.34 s  ExecutionStepTime = 0.85 s  ClockTime = 48 s

Time = 13018

pseudoTime: iteration 148155
Pseudo Courant No: 3
Damped pseudo Courant No: Min: 3 Mean: 3 Max: 3
Pseudo deltaT: Min: 7.1859e-09 Mean: 2.91403e-06 Max: 8.80875e-05
Solving for (rho rhoU rhoE)
  GMRES iteration: 0   Residual: 1.00702e-06 (3.53177e-07 1.088e-06 1.54139e-18) 1.2096e-06 
  GMRES iteration: 1   Residual: 6.74631e-09 (1.91997e-09 1.64877e-09 0) 5.72725e-09 
smoothSolver:  Solving for omega, Initial residual = 1.02184e-08, Final residual = 1.88762e-11, No Iterations 1
smoothSolver:  Solving for k, Initial residual = 3.02656e-07, Final residual = 9.59131e-09, No Iterations 1
ExecutionTime = 49.18 s  ExecutionStepTime = 0.84 s  ClockTime = 49 s

Time = 13019

pseudoTime: iteration 148156
Pseudo Courant No: 3
Damped pseudo Courant No: Min: 3 Mean: 3 Max: 3
Pseudo deltaT: Min: 7.1859e-09 Mean: 2.91403e-06 Max: 8.80886e-05
Solving for (rho rhoU rhoE)
  GMRES iteration: 0   Residual: 1.03471e-06 (3.54068e-07 1.08884e-06 1.54139e-18) 1.25663e-06 
  GMRES iteration: 1   Residual: 7.08554e-09 (2.04717e-09 1.72803e-09 0) 6.03351e-09 
smoothSolver:  Solving for omega, Initial residual = 1.01713e-08, Final residual = 1.8646e-11, No Iterations 1
smoothSolver:  Solving for k, Initial residual = 3.00551e-07, Final residual = 9.60823e-09, No Iterations 1
ExecutionTime = 50 s  ExecutionStepTime = 0.82 s  ClockTime = 50 s

Time = 13019

pseudoTime: iteration 148157
Pseudo Courant No: 3
Damped pseudo Courant No: Min: 3 Mean: 3 Max: 3
Pseudo deltaT: Min: 7.1859e-09 Mean: 2.91403e-06 Max: 8.80854e-05
Solving for (rho rhoU rhoE)
  GMRES iteration: 0   Residual: 1.00772e-06 (3.55945e-07 1.09849e-06 1.54139e-18) 1.21972e-06 
  GMRES iteration: 1   Residual: 7.42053e-09 (1.73867e-09 1.30033e-09 0) 6.41382e-09 
smoothSolver:  Solving for omega, Initial residual = 9.98775e-09, Final residual = 1.82949e-11, No Iterations 1
smoothSolver:  Solving for k, Initial residual = 2.9852e-07, Final residual = 9.62442e-09, No Iterations 1
ExecutionTime = 50.85 s  ExecutionStepTime = 0.85 s  ClockTime = 51 s

Time = 13019

pseudoTime: iteration 148158
Pseudo Courant No: 3
Damped pseudo Courant No: Min: 3 Mean: 3 Max: 3
Pseudo deltaT: Min: 7.1859e-09 Mean: 2.91403e-06 Max: 8.80864e-05
Solving for (rho rhoU rhoE)
  GMRES iteration: 0   Residual: 1.03347e-06 (3.53516e-07 1.09669e-06 1.54139e-18) 1.25947e-06 
  GMRES iteration: 1   Residual: 7.26946e-09 (2.00681e-09 1.63701e-09 0) 6.20988e-09 
smoothSolver:  Solving for omega, Initial residual = 9.81036e-09, Final residual = 1.79224e-11, No Iterations 1
smoothSolver:  Solving for k, Initial residual = 2.97119e-07, Final residual = 9.63974e-09, No Iterations 1
ExecutionTime = 51.71 s  ExecutionStepTime = 0.86 s  ClockTime = 51 s

Time = 13020

pseudoTime: iteration 148159
Pseudo Courant No: 3
Damped pseudo Courant No: Min: 3 Mean: 3 Max: 3
Pseudo deltaT: Min: 7.1859e-09 Mean: 2.91403e-06 Max: 8.80909e-05
Solving for (rho rhoU rhoE)
  GMRES iteration: 0   Residual: 1.03712e-06 (3.55908e-07 1.10827e-06 1.54139e-18) 1.26291e-06 
  GMRES iteration: 1   Residual: 7.15809e-09 (2.00246e-09 1.63653e-09 0) 6.1638e-09 
smoothSolver:  Solving for omega, Initial residual = 9.7009e-09, Final residual = 1.75487e-11, No Iterations 1
smoothSolver:  Solving for k, Initial residual = 2.95087e-07, Final residual = 9.65399e-09, No Iterations 1
ExecutionTime = 52.57 s  ExecutionStepTime = 0.86 s  ClockTime = 52 s

Time = 13020

pseudoTime: iteration 148160
Pseudo Courant No: 3
Damped pseudo Courant No: Min: 3 Mean: 3 Max: 3
Pseudo deltaT: Min: 7.1859e-09 Mean: 2.91403e-06 Max: 8.80853e-05
Solving for (rho rhoU rhoE)
  GMRES iteration: 0   Residual: 1.04214e-06 (3.52447e-07 1.11304e-06 1.54139e-18) 1.27266e-06 
  GMRES iteration: 1   Residual: 6.8571e-09 (1.99636e-09 1.65862e-09 0) 5.95545e-09 
smoothSolver:  Solving for omega, Initial residual = 9.55508e-09, Final residual = 1.7149e-11, No Iterations 1
smoothSolver:  Solving for k, Initial residual = 2.94106e-07, Final residual = 9.66756e-09, No Iterations 1
ExecutionTime = 53.39 s  ExecutionStepTime = 0.82 s  ClockTime = 53 s

Time = 13020

pseudoTime: iteration 148161
Pseudo Courant No: 3
Damped pseudo Courant No: Min: 3 Mean: 3 Max: 3
Pseudo deltaT: Min: 7.1859e-09 Mean: 2.91403e-06 Max: 8.80867e-05
Solving for (rho rhoU rhoE)
  GMRES iteration: 0   Residual: 1.04252e-06 (3.51322e-07 1.12235e-06 1.54139e-18) 1.275e-06 
  GMRES iteration: 1   Residual: 6.86545e-09 (1.94087e-09 1.56467e-09 0) 5.98197e-09 
smoothSolver:  Solving for omega, Initial residual = 9.44624e-09, Final residual = 1.67923e-11, No Iterations 1
smoothSolver:  Solving for k, Initial residual = 2.92645e-07, Final residual = 9.68022e-09, No Iterations 1
ExecutionTime = 54.21 s  ExecutionStepTime = 0.82 s  ClockTime = 54 s

Time = 13021

pseudoTime: iteration 148162
Pseudo Courant No: 3
Damped pseudo Courant No: Min: 3 Mean: 3 Max: 3
Pseudo deltaT: Min: 7.1859e-09 Mean: 2.91403e-06 Max: 8.80899e-05
Solving for (rho rhoU rhoE)
  GMRES iteration: 0   Residual: 1.06576e-06 (3.54522e-07 1.12693e-06 1.54139e-18) 1.31612e-06 
  GMRES iteration: 1   Residual: 7.30496e-09 (1.72854e-09 1.19522e-09 0) 6.40239e-09 
smoothSolver:  Solving for omega, Initial residual = 9.29151e-09, Final residual = 1.64288e-11, No Iterations 1
smoothSolver:  Solving for k, Initial residual = 2.91509e-07, Final residual = 9.69225e-09, No Iterations 1
ExecutionTime = 54.98 s  ExecutionStepTime = 0.77 s  ClockTime = 55 s

Time = 13021

pseudoTime: iteration 148163
Pseudo Courant No: 3
Damped pseudo Courant No: Min: 3 Mean: 3 Max: 3
Pseudo deltaT: Min: 7.1859e-09 Mean: 2.91403e-06 Max: 8.80936e-05
Solving for (rho rhoU rhoE)
  GMRES iteration: 0   Residual: 1.06445e-06 (3.56932e-07 1.13202e-06 1.54139e-18) 1.31141e-06 
  GMRES iteration: 1   Residual: 6.98653e-09 (1.96799e-09 1.49782e-09 0) 6.15546e-09 
smoothSolver:  Solving for omega, Initial residual = 9.18422e-09, Final residual = 1.61576e-11, No Iterations 1
smoothSolver:  Solving for k, Initial residual = 2.90461e-07, Final residual = 9.70306e-09, No Iterations 1
ExecutionTime = 55.62 s  ExecutionStepTime = 0.64 s  ClockTime = 55 s

Time = 13021

pseudoTime: iteration 148164
Pseudo Courant No: 3
Damped pseudo Courant No: Min: 3 Mean: 3 Max: 3
Pseudo deltaT: Min: 7.1859e-09 Mean: 2.91403e-06 Max: 8.80855e-05
Solving for (rho rhoU rhoE)
  GMRES iteration: 0   Residual: 1.06118e-06 (3.53992e-07 1.13021e-06 1.54139e-18) 1.30977e-06 
  GMRES iteration: 1   Residual: 6.9506e-09 (2.06445e-09 1.54365e-09 0) 6.16913e-09 
smoothSolver:  Solving for omega, Initial residual = 9.04239e-09, Final residual = 1.59358e-11, No Iterations 1
smoothSolver:  Solving for k, Initial residual = 2.89331e-07, Final residual = 9.71325e-09, No Iterations 1
ExecutionTime = 56.48 s  ExecutionStepTime = 0.86 s  ClockTime = 56 s

Time = 13022

pseudoTime: iteration 148165
Pseudo Courant No: 3
Damped pseudo Courant No: Min: 3 Mean: 3 Max: 3
Pseudo deltaT: Min: 7.1859e-09 Mean: 2.91403e-06 Max: 8.8088e-05
Solving for (rho rhoU rhoE)
  GMRES iteration: 0   Residual: 1.06038e-06 (3.54261e-07 1.13155e-06 1.54139e-18) 1.30997e-06 
  GMRES iteration: 1   Residual: 6.87715e-09 (1.98703e-09 1.42432e-09 0) 6.12373e-09 
smoothSolver:  Solving for omega, Initial residual = 8.94239e-09, Final residual = 1.56659e-11, No Iterations 1
smoothSolver:  Solving for k, Initial residual = 2.88526e-07, Final residual = 9.72259e-09, No Iterations 1
ExecutionTime = 57.33 s  ExecutionStepTime = 0.85 s  ClockTime = 57 s

Time = 13022

pseudoTime: iteration 148166
Pseudo Courant No: 3
Damped pseudo Courant No: Min: 3 Mean: 3 Max: 3
Pseudo deltaT: Min: 7.1859e-09 Mean: 2.91403e-06 Max: 8.80901e-05
Solving for (rho rhoU rhoE)
  GMRES iteration: 0   Residual: 1.08155e-06 (3.57242e-07 1.12714e-06 1.54139e-18) 1.34971e-06 
  GMRES iteration: 1   Residual: 6.80456e-09 (2.05299e-09 1.46601e-09 0) 6.15894e-09 
smoothSolver:  Solving for omega, Initial residual = 8.84538e-09, Final residual = 1.54125e-11, No Iterations 1
smoothSolver:  Solving for k, Initial residual = 2.87472e-07, Final residual = 9.73108e-09, No Iterations 1
ExecutionTime = 58.18 s  ExecutionStepTime = 0.85 s  ClockTime = 58 s

Time = 13022

pseudoTime: iteration 148167
Pseudo Courant No: 3
Damped pseudo Courant No: Min: 3 Mean: 3 Max: 3
Pseudo deltaT: Min: 7.1859e-09 Mean: 2.91403e-06 Max: 8.80898e-05
Solving for (rho rhoU rhoE)
  GMRES iteration: 0   Residual: 1.0867e-06 (3.60603e-07 1.12762e-06 1.54139e-18) 1.35512e-06 
  GMRES iteration: 1   Residual: 6.29348e-09 (1.88232e-09 1.363e-09 0) 5.77017e-09 
smoothSolver:  Solving for omega, Initial residual = 8.90789e-09, Final residual = 1.53407e-11, No Iterations 1
smoothSolver:  Solving for k, Initial residual = 2.86865e-07, Final residual = 9.73889e-09, No Iterations 1
bounding k, min: -0.00043045 max: 10698.8 average: 1642.63
ExecutionTime = 58.87 s  ExecutionStepTime = 0.69 s  ClockTime = 59 s

Time = 13023

pseudoTime: iteration 148168
Pseudo Courant No: 3
Damped pseudo Courant No: Min: 3 Mean: 3 Max: 3
Pseudo deltaT: Min: 7.1859e-09 Mean: 2.91403e-06 Max: 8.80847e-05
Solving for (rho rhoU rhoE)
  GMRES iteration: 0   Residual: 1.13088e-06 (3.61475e-07 1.1188e-06 1.54139e-18) 1.42008e-06 
  GMRES iteration: 1   Residual: 6.86168e-09 (2.07181e-09 1.33437e-09 0) 6.21479e-09 
smoothSolver:  Solving for omega, Initial residual = 9.09669e-09, Final residual = 1.54878e-11, No Iterations 1
smoothSolver:  Solving for k, Initial residual = 6.67297e-07, Final residual = 9.74779e-09, No Iterations 1
ExecutionTime = 59.55 s  ExecutionStepTime = 0.68 s  ClockTime = 59 s

Time = 13023

pseudoTime: iteration 148169
Pseudo Courant No: 3
Damped pseudo Courant No: Min: 3 Mean: 3 Max: 3
Pseudo deltaT: Min: 7.1859e-09 Mean: 2.91403e-06 Max: 8.80916e-05
Solving for (rho rhoU rhoE)
  GMRES iteration: 0   Residual: 1.11583e-06 (3.65706e-07 1.11532e-06 1.54139e-18) 1.40292e-06 
  GMRES iteration: 1   Residual: 6.90066e-09 (2.0875e-09 1.26327e-09 0) 6.22966e-09 
smoothSolver:  Solving for omega, Initial residual = 9.18903e-09, Final residual = 1.57645e-11, No Iterations 1
smoothSolver:  Solving for k, Initial residual = 5.68081e-07, Final residual = 9.75407e-09, No Iterations 1
ExecutionTime = 60.23 s  ExecutionStepTime = 0.68 s  ClockTime = 60 s

Time = 13023

pseudoTime: iteration 148170
Pseudo Courant No: 3
Damped pseudo Courant No: Min: 3 Mean: 3 Max: 3
Pseudo deltaT: Min: 7.1859e-09 Mean: 2.91403e-06 Max: 8.80886e-05
Solving for (rho rhoU rhoE)
  GMRES iteration: 0   Residual: 1.12202e-06 (3.65664e-07 1.10354e-06 1.54139e-18) 1.39963e-06 
  GMRES iteration: 1   Residual: 6.74943e-09 (2.0444e-09 1.17431e-09 0) 6.09585e-09 
smoothSolver:  Solving for omega, Initial residual = 9.23266e-09, Final residual = 1.60397e-11, No Iterations 1
smoothSolver:  Solving for k, Initial residual = 4.9469e-07, Final residual = 9.76021e-09, No Iterations 1
ExecutionTime = 61.08 s  ExecutionStepTime = 0.85 s  ClockTime = 61 s

Time = 13024

pseudoTime: iteration 148171
Pseudo Courant No: 3
Damped pseudo Courant No: Min: 3 Mean: 3 Max: 3
Pseudo deltaT: Min: 7.1859e-09 Mean: 2.91403e-06 Max: 8.80888e-05
Solving for (rho rhoU rhoE)
  GMRES iteration: 0   Residual: 1.18172e-06 (3.69765e-07 1.09404e-06 1.54139e-18) 1.46804e-06 
  GMRES iteration: 1   Residual: 6.91068e-09 (1.9291e-09 1.01688e-09 0) 6.19542e-09 
smoothSolver:  Solving for omega, Initial residual = 9.45681e-09, Final residual = 1.62273e-11, No Iterations 1
smoothSolver:  Solving for k, Initial residual = 4.37819e-07, Final residual = 9.76637e-09, No Iterations 1
ExecutionTime = 61.88 s  ExecutionStepTime = 0.8 s  ClockTime = 62 s

Time = 13024

pseudoTime: iteration 148172
Pseudo Courant No: 3
Damped pseudo Courant No: Min: 3 Mean: 3 Max: 3
Pseudo deltaT: Min: 7.1859e-09 Mean: 2.91403e-06 Max: 8.80901e-05
Solving for (rho rhoU rhoE)
  GMRES iteration: 0   Residual: 1.16892e-06 (3.70904e-07 1.09113e-06 1.54139e-18) 1.45747e-06 
  GMRES iteration: 1   Residual: 6.34371e-09 (1.98594e-09 1.08163e-09 0) 5.75251e-09 
smoothSolver:  Solving for omega, Initial residual = 9.51736e-09, Final residual = 1.63177e-11, No Iterations 1
smoothSolver:  Solving for k, Initial residual = 3.95114e-07, Final residual = 9.77251e-09, No Iterations 1
ExecutionTime = 62.49 s  ExecutionStepTime = 0.61 s  ClockTime = 62 s

Time = 13024

pseudoTime: iteration 148173
Pseudo Courant No: 3
Damped pseudo Courant No: Min: 3 Mean: 3 Max: 3
Pseudo deltaT: Min: 7.1859e-09 Mean: 2.91403e-06 Max: 8.80934e-05
Solving for (rho rhoU rhoE)
  GMRES iteration: 0   Residual: 1.16901e-06 (3.75687e-07 1.08218e-06 1.54139e-18) 1.44582e-06 
  GMRES iteration: 1   Residual: 6.65735e-09 (2.02386e-09 1.00324e-09 0) 5.98893e-09 
smoothSolver:  Solving for omega, Initial residual = 9.42573e-09, Final residual = 1.63398e-11, No Iterations 1
smoothSolver:  Solving for k, Initial residual = 3.79022e-07, Final residual = 9.77897e-09, No Iterations 1
ExecutionTime = 63 s  ExecutionStepTime = 0.51 s  ClockTime = 63 s

Time = 13025

pseudoTime: iteration 148174
Pseudo Courant No: 3
Damped pseudo Courant No: Min: 3 Mean: 3 Max: 3
Pseudo deltaT: Min: 7.1859e-09 Mean: 2.91403e-06 Max: 8.80839e-05
Solving for (rho rhoU rhoE)
  GMRES iteration: 0   Residual: 1.15483e-06 (3.75739e-07 1.0731e-06 1.54139e-18) 1.42059e-06 
  GMRES iteration: 1   Residual: 6.33587e-09 (2.02545e-09 1.00489e-09 0) 5.70426e-09 
smoothSolver:  Solving for omega, Initial residual = 9.326e-09, Final residual = 1.62545e-11, No Iterations 1
smoothSolver:  Solving for k, Initial residual = 3.67075e-07, Final residual = 9.78581e-09, No Iterations 1
ExecutionTime = 63.57 s  ExecutionStepTime = 0.57 s  ClockTime = 64 s

Time = 13025

pseudoTime: iteration 148175
Pseudo Courant No: 3
Damped pseudo Courant No: Min: 3 Mean: 3 Max: 3
Pseudo deltaT: Min: 7.1859e-09 Mean: 2.91403e-06 Max: 8.80864e-05
Solving for (rho rhoU rhoE)
  GMRES iteration: 0   Residual: 1.1779e-06 (3.76597e-07 1.0705e-06 1.54139e-18) 1.44933e-06 
  GMRES iteration: 1   Residual: 6.14838e-09 (1.97433e-09 9.64207e-10 0) 5.52224e-09 
smoothSolver:  Solving for omega, Initial residual = 9.30794e-09, Final residual = 1.60499e-11, No Iterations 1
smoothSolver:  Solving for k, Initial residual = 3.5286e-07, Final residual = 9.79308e-09, No Iterations 1
ExecutionTime = 64.05 s  ExecutionStepTime = 0.48 s  ClockTime = 64 s

Time = 13025

pseudoTime: iteration 148176
Pseudo Courant No: 3
Damped pseudo Courant No: Min: 3 Mean: 3 Max: 3
Pseudo deltaT: Min: 7.1859e-09 Mean: 2.91403e-06 Max: 8.80885e-05
Solving for (rho rhoU rhoE)
  GMRES iteration: 0   Residual: 1.16488e-06 (3.83685e-07 1.07242e-06 1.54139e-18) 1.43152e-06 
  GMRES iteration: 1   Residual: 6.27343e-09 (2.05568e-09 9.54655e-10 0) 5.61656e-09 
smoothSolver:  Solving for omega, Initial residual = 9.1342e-09, Final residual = 1.57734e-11, No Iterations 1
smoothSolver:  Solving for k, Initial residual = 3.45458e-07, Final residual = 9.80095e-09, No Iterations 1
ExecutionTime = 64.5 s  ExecutionStepTime = 0.45 s  ClockTime = 64 s

Time = 13026

pseudoTime: iteration 148177
Pseudo Courant No: 3
Damped pseudo Courant No: Min: 3 Mean: 3 Max: 3
Pseudo deltaT: Min: 7.1859e-09 Mean: 2.91403e-06 Max: 8.80861e-05
Solving for (rho rhoU rhoE)
  GMRES iteration: 0   Residual: 1.14862e-06 (3.8337e-07 1.06941e-06 1.54139e-18) 1.41337e-06 
  GMRES iteration: 1   Residual: 5.4315e-09 (1.84114e-09 9.67664e-10 0) 4.9129e-09 
smoothSolver:  Solving for omega, Initial residual = 8.91324e-09, Final residual = 1.54331e-11, No Iterations 1
smoothSolver:  Solving for k, Initial residual = 3.38948e-07, Final residual = 9.80923e-09, No Iterations 1
ExecutionTime = 64.98 s  ExecutionStepTime = 0.48 s  ClockTime = 65 s

Time = 13026

pseudoTime: iteration 148178
Pseudo Courant No: 3
Damped pseudo Courant No: Min: 3 Mean: 3 Max: 3
Pseudo deltaT: Min: 7.1859e-09 Mean: 2.91403e-06 Max: 8.80905e-05
Solving for (rho rhoU rhoE)
  GMRES iteration: 0   Residual: 1.14956e-06 (3.84739e-07 1.0699e-06 1.54139e-18) 1.41427e-06 
  GMRES iteration: 1   Residual: 5.71031e-09 (2.01007e-09 9.98333e-10 0) 5.12498e-09 
smoothSolver:  Solving for omega, Initial residual = 8.60677e-09, Final residual = 1.49987e-11, No Iterations 1
smoothSolver:  Solving for k, Initial residual = 3.31824e-07, Final residual = 9.81803e-09, No Iterations 1
ExecutionTime = 65.74 s  ExecutionStepTime = 0.76 s  ClockTime = 66 s

Time = 13026

pseudoTime: iteration 148179
Pseudo Courant No: 3
Damped pseudo Courant No: Min: 3 Mean: 3 Max: 3
Pseudo deltaT: Min: 7.1859e-09 Mean: 2.91403e-06 Max: 8.80865e-05
Solving for (rho rhoU rhoE)
  GMRES iteration: 0   Residual: 1.13035e-06 (3.86189e-07 1.07438e-06 1.54139e-18) 1.38148e-06 
  GMRES iteration: 1   Residual: 5.10767e-09 (1.78175e-09 9.79566e-10 0) 4.62652e-09 
smoothSolver:  Solving for omega, Initial residual = 8.34476e-09, Final residual = 1.45119e-11, No Iterations 1
smoothSolver:  Solving for k, Initial residual = 3.26976e-07, Final residual = 9.82697e-09, No Iterations 1
ExecutionTime = 66.69 s  ExecutionStepTime = 0.95 s  ClockTime = 67 s

Time = 13027

pseudoTime: iteration 148180
Pseudo Courant No: 3
Damped pseudo Courant No: Min: 3 Mean: 3 Max: 3
Pseudo deltaT: Min: 7.1859e-09 Mean: 2.91403e-06 Max: 8.80861e-05
Solving for (rho rhoU rhoE)
  GMRES iteration: 0   Residual: 1.12945e-06 (3.86206e-07 1.07335e-06 1.54139e-18) 1.3759e-06 
  GMRES iteration: 1   Residual: 5.48604e-09 (2.01017e-09 1.02471e-09 0) 4.90559e-09 
smoothSolver:  Solving for omega, Initial residual = 8.02345e-09, Final residual = 1.39775e-11, No Iterations 1
smoothSolver:  Solving for k, Initial residual = 3.23239e-07, Final residual = 9.83608e-09, No Iterations 1
ExecutionTime = 67.6 s  ExecutionStepTime = 0.91 s  ClockTime = 68 s

Time = 13027

pseudoTime: iteration 148181
Pseudo Courant No: 3
Damped pseudo Courant No: Min: 3 Mean: 3 Max: 3
Pseudo deltaT: Min: 7.1859e-09 Mean: 2.91403e-06 Max: 8.80871e-05
Solving for (rho rhoU rhoE)
  GMRES iteration: 0   Residual: 1.10442e-06 (3.89687e-07 1.07534e-06 1.54139e-18) 1.34483e-06 
  GMRES iteration: 1   Residual: 5.64729e-09 (2.09791e-09 1.03185e-09 0) 5.03126e-09 
smoothSolver:  Solving for omega, Initial residual = 7.8686e-09, Final residual = 1.3543e-11, No Iterations 1
smoothSolver:  Solving for k, Initial residual = 3.18024e-07, Final residual = 9.84499e-09, No Iterations 1
ExecutionTime = 68.54 s  ExecutionStepTime = 0.94 s  ClockTime = 69 s

Time = 13027

pseudoTime: iteration 148182
Pseudo Courant No: 3
Damped pseudo Courant No: Min: 3 Mean: 3 Max: 3
Pseudo deltaT: Min: 7.1859e-09 Mean: 2.91403e-06 Max: 8.80903e-05
Solving for (rho rhoU rhoE)
  GMRES iteration: 0   Residual: 1.10305e-06 (3.88472e-07 1.07367e-06 1.54139e-18) 1.33453e-06 
  GMRES iteration: 1   Residual: 5.01806e-09 (1.90207e-09 1.08292e-09 0) 4.49388e-09 
smoothSolver:  Solving for omega, Initial residual = 7.57938e-09, Final residual = 1.31117e-11, No Iterations 1
smoothSolver:  Solving for k, Initial residual = 3.15456e-07, Final residual = 9.85344e-09, No Iterations 1
ExecutionTime = 69.44 s  ExecutionStepTime = 0.9 s  ClockTime = 69 s

Time = 13028

pseudoTime: iteration 148183
Pseudo Courant No: 3
Damped pseudo Courant No: Min: 3 Mean: 3 Max: 3
Pseudo deltaT: Min: 7.1859e-09 Mean: 2.91403e-06 Max: 8.8091e-05
Solving for (rho rhoU rhoE)
  GMRES iteration: 0   Residual: 1.08175e-06 (3.88327e-07 1.07234e-06 1.54139e-18) 1.30805e-06 
  GMRES iteration: 1   Residual: 5.71571e-09 (2.25481e-09 1.09122e-09 0) 5.05451e-09 
smoothSolver:  Solving for omega, Initial residual = 7.34406e-09, Final residual = 1.26583e-11, No Iterations 1
smoothSolver:  Solving for k, Initial residual = 3.12178e-07, Final residual = 9.86126e-09, No Iterations 1
ExecutionTime = 70.33 s  ExecutionStepTime = 0.89 s  ClockTime = 70 s

Time = 13028

pseudoTime: iteration 148184
Pseudo Courant No: 3
Damped pseudo Courant No: Min: 3 Mean: 3 Max: 3
Pseudo deltaT: Min: 7.1859e-09 Mean: 2.91403e-06 Max: 8.8086e-05
Solving for (rho rhoU rhoE)
  GMRES iteration: 0   Residual: 1.05946e-06 (3.86176e-07 1.06832e-06 1.54139e-18) 1.27654e-06 
  GMRES iteration: 1   Residual: 5.30493e-09 (2.1642e-09 1.10352e-09 0) 4.66988e-09 
smoothSolver:  Solving for omega, Initial residual = 7.24422e-09, Final residual = 1.21558e-11, No Iterations 1
smoothSolver:  Solving for k, Initial residual = 3.08818e-07, Final residual = 9.86777e-09, No Iterations 1
ExecutionTime = 71.28 s  ExecutionStepTime = 0.95 s  ClockTime = 71 s

Time = 13028

pseudoTime: iteration 148185
Pseudo Courant No: 3
Damped pseudo Courant No: Min: 3 Mean: 3 Max: 3
Pseudo deltaT: Min: 7.1859e-09 Mean: 2.91403e-06 Max: 8.80861e-05
Solving for (rho rhoU rhoE)
  GMRES iteration: 0   Residual: 1.06e-06 (3.82775e-07 1.0635e-06 1.54139e-18) 1.27554e-06 
  GMRES iteration: 1   Residual: 5.42468e-09 (2.23855e-09 1.10461e-09 0) 4.76289e-09 
smoothSolver:  Solving for omega, Initial residual = 7.20401e-09, Final residual = 1.17363e-11, No Iterations 1
smoothSolver:  Solving for k, Initial residual = 3.06651e-07, Final residual = 9.87306e-09, No Iterations 1
ExecutionTime = 72.11 s  ExecutionStepTime = 0.83 s  ClockTime = 72 s

Time = 13029

pseudoTime: iteration 148186
Pseudo Courant No: 3
Damped pseudo Courant No: Min: 3 Mean: 3 Max: 3
Pseudo deltaT: Min: 7.1859e-09 Mean: 2.91403e-06 Max: 8.8089e-05
Solving for (rho rhoU rhoE)
  GMRES iteration: 0   Residual: 1.03743e-06 (3.80541e-07 1.05857e-06 1.54139e-18) 1.252e-06 
  GMRES iteration: 1   Residual: 5.20059e-09 (2.20322e-09 1.11623e-09 0) 4.56871e-09 
smoothSolver:  Solving for omega, Initial residual = 7.13744e-09, Final residual = 1.14902e-11, No Iterations 1
smoothSolver:  Solving for k, Initial residual = 3.04121e-07, Final residual = 9.87671e-09, No Iterations 1
ExecutionTime = 72.81 s  ExecutionStepTime = 0.7 s  ClockTime = 73 s

Time = 13029

pseudoTime: iteration 148187
Pseudo Courant No: 3
Damped pseudo Courant No: Min: 3 Mean: 3 Max: 3
Pseudo deltaT: Min: 7.1859e-09 Mean: 2.91403e-06 Max: 8.80915e-05
Solving for (rho rhoU rhoE)
  GMRES iteration: 0   Residual: 1.03624e-06 (3.8283e-07 1.05436e-06 1.54139e-18) 1.24528e-06 
  GMRES iteration: 1   Residual: 5.5475e-09 (2.013e-09 9.37958e-10 0) 4.88147e-09 
smoothSolver:  Solving for omega, Initial residual = 7.17479e-09, Final residual = 1.15004e-11, No Iterations 1
smoothSolver:  Solving for k, Initial residual = 3.01731e-07, Final residual = 9.87935e-09, No Iterations 1
ExecutionTime = 73.51 s  ExecutionStepTime = 0.7 s  ClockTime = 74 s

Time = 13029

pseudoTime: iteration 148188
Pseudo Courant No: 3
Damped pseudo Courant No: Min: 3 Mean: 3 Max: 3
Pseudo deltaT: Min: 7.1859e-09 Mean: 2.91403e-06 Max: 8.80864e-05
Solving for (rho rhoU rhoE)
  GMRES iteration: 0   Residual: 1.00563e-06 (3.76401e-07 1.05202e-06 1.54139e-18) 1.2109e-06 
  GMRES iteration: 1   Residual: 5.44905e-09 (2.39122e-09 1.13497e-09 0) 4.78049e-09 
smoothSolver:  Solving for omega, Initial residual = 7.27059e-09, Final residual = 1.16458e-11, No Iterations 1
smoothSolver:  Solving for k, Initial residual = 2.99869e-07, Final residual = 9.88023e-09, No Iterations 1
ExecutionTime = 74.14 s  ExecutionStepTime = 0.63 s  ClockTime = 74 s

Time = 13030

pseudoTime: iteration 148189
Pseudo Courant No: 3
Damped pseudo Courant No: Min: 3 Mean: 3 Max: 3
Pseudo deltaT: Min: 7.1859e-09 Mean: 2.91403e-06 Max: 8.80886e-05
Solving for (rho rhoU rhoE)
  GMRES iteration: 0   Residual: 1.01513e-06 (3.721e-07 1.043e-06 1.54139e-18) 1.21517e-06 
  GMRES iteration: 1   Residual: 5.13918e-09 (2.27469e-09 1.10974e-09 0) 4.54694e-09 
smoothSolver:  Solving for omega, Initial residual = 7.52367e-09, Final residual = 1.21532e-11, No Iterations 1
smoothSolver:  Solving for k, Initial residual = 2.97442e-07, Final residual = 9.87994e-09, No Iterations 1
ExecutionTime = 74.75 s  ExecutionStepTime = 0.61 s  ClockTime = 75 s

Time = 13030

pseudoTime: iteration 148190
Pseudo Courant No: 3
Damped pseudo Courant No: Min: 3 Mean: 3 Max: 3
Pseudo deltaT: Min: 7.1859e-09 Mean: 2.91403e-06 Max: 8.8086e-05
Solving for (rho rhoU rhoE)
  GMRES iteration: 0   Residual: 1.00799e-06 (3.67892e-07 1.04167e-06 1.54139e-18) 1.19986e-06 
  GMRES iteration: 1   Residual: 5.16274e-09 (2.30772e-09 1.11043e-09 0) 4.52664e-09 
smoothSolver:  Solving for omega, Initial residual = 7.74949e-09, Final residual = 1.26296e-11, No Iterations 1
smoothSolver:  Solving for k, Initial residual = 2.96045e-07, Final residual = 9.87899e-09, No Iterations 1
ExecutionTime = 75.52 s  ExecutionStepTime = 0.77 s  ClockTime = 76 s

Time = 13030

pseudoTime: iteration 148191
Pseudo Courant No: 3
Damped pseudo Courant No: Min: 3 Mean: 3 Max: 3
Pseudo deltaT: Min: 7.1859e-09 Mean: 2.91403e-06 Max: 8.809e-05
Solving for (rho rhoU rhoE)
  GMRES iteration: 0   Residual: 9.94818e-07 (3.66588e-07 1.03935e-06 1.54139e-18) 1.18011e-06 
  GMRES iteration: 1   Residual: 4.99197e-09 (2.24605e-09 1.0927e-09 0) 4.41072e-09 
smoothSolver:  Solving for omega, Initial residual = 7.82643e-09, Final residual = 1.2949e-11, No Iterations 1
smoothSolver:  Solving for k, Initial residual = 2.94261e-07, Final residual = 9.87739e-09, No Iterations 1
ExecutionTime = 76.31 s  ExecutionStepTime = 0.79 s  ClockTime = 76 s

Time = 13031

pseudoTime: iteration 148192
Pseudo Courant No: 3
Damped pseudo Courant No: Min: 3 Mean: 3 Max: 3
Pseudo deltaT: Min: 7.1859e-09 Mean: 2.91403e-06 Max: 8.80864e-05
Solving for (rho rhoU rhoE)
  GMRES iteration: 0   Residual: 9.97305e-07 (3.66046e-07 1.03591e-06 1.54139e-18) 1.18162e-06 
  GMRES iteration: 1   Residual: 5.19906e-09 (2.22888e-09 1.0428e-09 0) 4.5364e-09 
smoothSolver:  Solving for omega, Initial residual = 7.85749e-09, Final residual = 1.3156e-11, No Iterations 1
smoothSolver:  Solving for k, Initial residual = 2.92785e-07, Final residual = 9.87581e-09, No Iterations 1
ExecutionTime = 77.03 s  ExecutionStepTime = 0.72 s  ClockTime = 77 s

Time = 13031

pseudoTime: iteration 148193
Pseudo Courant No: 3
Damped pseudo Courant No: Min: 3 Mean: 3 Max: 3
Pseudo deltaT: Min: 7.1859e-09 Mean: 2.91403e-06 Max: 8.80869e-05
Solving for (rho rhoU rhoE)
  GMRES iteration: 0   Residual: 1.01125e-06 (3.61107e-07 1.03671e-06 1.54139e-18) 1.19596e-06 
  GMRES iteration: 1   Residual: 4.50145e-09 (2.02805e-09 1.04043e-09 0) 4.05235e-09 
smoothSolver:  Solving for omega, Initial residual = 7.88924e-09, Final residual = 1.32337e-11, No Iterations 1
smoothSolver:  Solving for k, Initial residual = 2.91472e-07, Final residual = 9.87428e-09, No Iterations 1
ExecutionTime = 77.75 s  ExecutionStepTime = 0.72 s  ClockTime = 78 s

Time = 13031

pseudoTime: iteration 148194
Pseudo Courant No: 3
Damped pseudo Courant No: Min: 3 Mean: 3 Max: 3
Pseudo deltaT: Min: 7.1859e-09 Mean: 2.91403e-06 Max: 8.80899e-05
Solving for (rho rhoU rhoE)
  GMRES iteration: 0   Residual: 1.00415e-06 (3.63111e-07 1.03845e-06 1.54139e-18) 1.18601e-06 
  GMRES iteration: 1   Residual: 5.03404e-09 (2.21177e-09 1.06258e-09 0) 4.47746e-09 
smoothSolver:  Solving for omega, Initial residual = 7.81773e-09, Final residual = 1.32454e-11, No Iterations 1
smoothSolver:  Solving for k, Initial residual = 2.90142e-07, Final residual = 9.87373e-09, No Iterations 1
ExecutionTime = 78.53 s  ExecutionStepTime = 0.78 s  ClockTime = 79 s

Time = 13032

pseudoTime: iteration 148195
Pseudo Courant No: 3
Damped pseudo Courant No: Min: 3 Mean: 3 Max: 3
Pseudo deltaT: Min: 7.1859e-09 Mean: 2.91403e-06 Max: 8.80883e-05
Solving for (rho rhoU rhoE)
  GMRES iteration: 0   Residual: 1.01957e-06 (3.59786e-07 1.0331e-06 1.54139e-18) 1.20465e-06 
  GMRES iteration: 1   Residual: 5.17002e-09 (2.26313e-09 1.08163e-09 0) 4.61847e-09 
smoothSolver:  Solving for omega, Initial residual = 7.72416e-09, Final residual = 1.32018e-11, No Iterations 1
smoothSolver:  Solving for k, Initial residual = 2.89219e-07, Final residual = 9.87432e-09, No Iterations 1
ExecutionTime = 79.32 s  ExecutionStepTime = 0.79 s  ClockTime = 79 s

Time = 13032

pseudoTime: iteration 148196
Pseudo Courant No: 3
Damped pseudo Courant No: Min: 3 Mean: 3 Max: 3
Pseudo deltaT: Min: 7.1859e-09 Mean: 2.91403e-06 Max: 8.80827e-05
Solving for (rho rhoU rhoE)
  GMRES iteration: 0   Residual: 1.01158e-06 (3.59465e-07 1.03718e-06 1.54139e-18) 1.19437e-06 
  GMRES iteration: 1   Residual: 5.17108e-09 (2.16222e-09 1.04822e-09 0) 4.61369e-09 
smoothSolver:  Solving for omega, Initial residual = 7.70498e-09, Final residual = 1.31318e-11, No Iterations 1
smoothSolver:  Solving for k, Initial residual = 2.88081e-07, Final residual = 9.87651e-09, No Iterations 1
ExecutionTime = 80.08 s  ExecutionStepTime = 0.76 s  ClockTime = 80 s

Time = 13032

pseudoTime: iteration 148197
Pseudo Courant No: 3
Damped pseudo Courant No: Min: 3 Mean: 3 Max: 3
Pseudo deltaT: Min: 7.1859e-09 Mean: 2.91403e-06 Max: 8.80903e-05
Solving for (rho rhoU rhoE)
  GMRES iteration: 0   Residual: 1.01512e-06 (3.60353e-07 1.036e-06 1.54139e-18) 1.19302e-06 
  GMRES iteration: 1   Residual: 4.90531e-09 (2.04164e-09 1.05349e-09 0) 4.4528e-09 
smoothSolver:  Solving for omega, Initial residual = 7.62666e-09, Final residual = 1.30693e-11, No Iterations 1
smoothSolver:  Solving for k, Initial residual = 2.87498e-07, Final residual = 9.88023e-09, No Iterations 1
bounding k, min: -0.000429705 max: 10699.3 average: 1642.71
ExecutionTime = 80.88 s  ExecutionStepTime = 0.8 s  ClockTime = 81 s

Time = 13033

pseudoTime: iteration 148198
Pseudo Courant No: 3
Damped pseudo Courant No: Min: 3 Mean: 3 Max: 3
Pseudo deltaT: Min: 7.1859e-09 Mean: 2.91403e-06 Max: 8.80939e-05
Solving for (rho rhoU rhoE)
  GMRES iteration: 0   Residual: 1.00007e-06 (3.61685e-07 1.03362e-06 1.54139e-18) 1.17351e-06 
  GMRES iteration: 1   Residual: 5.4285e-09 (2.11115e-09 1.04554e-09 0) 4.87132e-09 
smoothSolver:  Solving for omega, Initial residual = 7.66033e-09, Final residual = 1.2999e-11, No Iterations 1
smoothSolver:  Solving for k, Initial residual = 6.67997e-07, Final residual = 9.88744e-09, No Iterations 1
ExecutionTime = 81.72 s  ExecutionStepTime = 0.84 s  ClockTime = 82 s

Time = 13033

pseudoTime: iteration 148199
Pseudo Courant No: 3
Damped pseudo Courant No: Min: 3 Mean: 3 Max: 3
Pseudo deltaT: Min: 7.1859e-09 Mean: 2.91403e-06 Max: 8.80898e-05
Solving for (rho rhoU rhoE)
  GMRES iteration: 0   Residual: 1.01197e-06 (3.60741e-07 1.03097e-06 1.54139e-18) 1.18692e-06 
  GMRES iteration: 1   Residual: 4.4103e-09 (1.68262e-09 1.019e-09 0) 4.11074e-09 
smoothSolver:  Solving for omega, Initial residual = 7.56938e-09, Final residual = 1.28583e-11, No Iterations 1
smoothSolver:  Solving for k, Initial residual = 5.68969e-07, Final residual = 9.89399e-09, No Iterations 1
ExecutionTime = 82.53 s  ExecutionStepTime = 0.81 s  ClockTime = 83 s

Time = 13033

pseudoTime: iteration 148200
Pseudo Courant No: 3
Damped pseudo Courant No: Min: 3 Mean: 3 Max: 3
Pseudo deltaT: Min: 7.1859e-09 Mean: 2.91403e-06 Max: 8.80874e-05
Solving for (rho rhoU rhoE)
  GMRES iteration: 0   Residual: 1.02518e-06 (3.65309e-07 1.03198e-06 1.54139e-18) 1.20417e-06 
  GMRES iteration: 1   Residual: 5.40633e-09 (2.07388e-09 1.0905e-09 0) 4.91546e-09 
smoothSolver:  Solving for omega, Initial residual = 7.53364e-09, Final residual = 1.27285e-11, No Iterations 1
smoothSolver:  Solving for k, Initial residual = 4.95772e-07, Final residual = 9.90292e-09, No Iterations 1
ExecutionTime = 83.21 s  ExecutionStepTime = 0.68 s  ClockTime = 83 s

Time = 13034

pseudoTime: iteration 148201
Pseudo Courant No: 3
Damped pseudo Courant No: Min: 3 Mean: 3 Max: 3
Pseudo deltaT: Min: 7.1859e-09 Mean: 2.91403e-06 Max: 8.80863e-05
Solving for (rho rhoU rhoE)
  GMRES iteration: 0   Residual: 1.03676e-06 (3.67099e-07 1.02745e-06 1.54139e-18) 1.21524e-06 
  GMRES iteration: 1   Residual: 5.7547e-09 (2.08905e-09 1.06884e-09 0) 5.19072e-09 
smoothSolver:  Solving for omega, Initial residual = 7.4035e-09, Final residual = 1.25737e-11, No Iterations 1
smoothSolver:  Solving for k, Initial residual = 4.39164e-07, Final residual = 9.91367e-09, No Iterations 1
ExecutionTime = 83.92 s  ExecutionStepTime = 0.71 s  ClockTime = 84 s

Time = 13034

pseudoTime: iteration 148202
Pseudo Courant No: 3
Damped pseudo Courant No: Min: 3 Mean: 3 Max: 3
Pseudo deltaT: Min: 7.1859e-09 Mean: 2.91403e-06 Max: 8.80894e-05
Solving for (rho rhoU rhoE)
  GMRES iteration: 0   Residual: 1.04891e-06 (3.72546e-07 1.02653e-06 1.54139e-18) 1.2391e-06 
  GMRES iteration: 1   Residual: 6.03523e-09 (2.0429e-09 1.04559e-09 0) 5.42628e-09 
smoothSolver:  Solving for omega, Initial residual = 7.3193e-09, Final residual = 1.24026e-11, No Iterations 1
smoothSolver:  Solving for k, Initial residual = 3.96711e-07, Final residual = 9.92602e-09, No Iterations 1
ExecutionTime = 84.58 s  ExecutionStepTime = 0.66 s  ClockTime = 85 s

Time = 13034

pseudoTime: iteration 148203
Pseudo Courant No: 3
Damped pseudo Courant No: Min: 3 Mean: 3 Max: 3
Pseudo deltaT: Min: 7.1859e-09 Mean: 2.91403e-06 Max: 8.80919e-05
Solving for (rho rhoU rhoE)
  GMRES iteration: 0   Residual: 1.05628e-06 (3.7567e-07 1.02252e-06 1.54139e-18) 1.24059e-06 
  GMRES iteration: 1   Residual: 5.67907e-09 (2.1078e-09 1.14021e-09 0) 5.18277e-09 
smoothSolver:  Solving for omega, Initial residual = 7.35511e-09, Final residual = 1.22657e-11, No Iterations 1
smoothSolver:  Solving for k, Initial residual = 3.80927e-07, Final residual = 9.93922e-09, No Iterations 1
ExecutionTime = 85.24 s  ExecutionStepTime = 0.66 s  ClockTime = 85 s

Time = 13035

pseudoTime: iteration 148204
Pseudo Courant No: 3
Damped pseudo Courant No: Min: 3 Mean: 3 Max: 3
Pseudo deltaT: Min: 7.1859e-09 Mean: 2.91403e-06 Max: 8.80912e-05
Solving for (rho rhoU rhoE)
  GMRES iteration: 0   Residual: 1.07384e-06 (3.79009e-07 1.01769e-06 1.54139e-18) 1.25947e-06 
  GMRES iteration: 1   Residual: 5.98206e-09 (2.23346e-09 1.17423e-09 0) 5.44099e-09 
smoothSolver:  Solving for omega, Initial residual = 7.21144e-09, Final residual = 1.21277e-11, No Iterations 1
smoothSolver:  Solving for k, Initial residual = 3.69211e-07, Final residual = 9.95343e-09, No Iterations 1
ExecutionTime = 86.07 s  ExecutionStepTime = 0.83 s  ClockTime = 86 s

Time = 13035

pseudoTime: iteration 148205
Pseudo Courant No: 3
Damped pseudo Courant No: Min: 3 Mean: 3 Max: 3
Pseudo deltaT: Min: 7.1859e-09 Mean: 2.91403e-06 Max: 8.80901e-05
Solving for (rho rhoU rhoE)
  GMRES iteration: 0   Residual: 1.07389e-06 (3.82533e-07 1.01735e-06 1.54139e-18) 1.26308e-06 
  GMRES iteration: 1   Residual: 6.30493e-09 (2.32462e-09 1.20401e-09 0) 5.72257e-09 
smoothSolver:  Solving for omega, Initial residual = 7.17971e-09, Final residual = 1.2014e-11, No Iterations 1
smoothSolver:  Solving for k, Initial residual = 3.55266e-07, Final residual = 9.96804e-09, No Iterations 1
ExecutionTime = 86.88 s  ExecutionStepTime = 0.81 s  ClockTime = 87 s

Time = 13035

pseudoTime: iteration 148206
Pseudo Courant No: 3
Damped pseudo Courant No: Min: 3 Mean: 3 Max: 3
Pseudo deltaT: Min: 7.1859e-09 Mean: 2.91403e-06 Max: 8.80891e-05
Solving for (rho rhoU rhoE)
  GMRES iteration: 0   Residual: 1.06274e-06 (3.89139e-07 1.01285e-06 1.54139e-18) 1.24379e-06 
  GMRES iteration: 1   Residual: 6.59441e-09 (2.30362e-09 1.18519e-09 0) 5.95725e-09 
smoothSolver:  Solving for omega, Initial residual = 7.12313e-09, Final residual = 1.19771e-11, No Iterations 1
smoothSolver:  Solving for k, Initial residual = 3.48003e-07, Final residual = 9.98263e-09, No Iterations 1
ExecutionTime = 87.74 s  ExecutionStepTime = 0.86 s  ClockTime = 88 s

Time = 13036

pseudoTime: iteration 148207
Pseudo Courant No: 3
Damped pseudo Courant No: Min: 3 Mean: 3 Max: 3
Pseudo deltaT: Min: 7.1859e-09 Mean: 2.91403e-06 Max: 8.80844e-05
Solving for (rho rhoU rhoE)
  GMRES iteration: 0   Residual: 1.0989e-06 (3.8988e-07 1.00798e-06 1.54139e-18) 1.28606e-06 
  GMRES iteration: 1   Residual: 6.79283e-09 (2.53751e-09 1.28754e-09 0) 6.11235e-09 
smoothSolver:  Solving for omega, Initial residual = 7.13849e-09, Final residual = 1.19946e-11, No Iterations 1
smoothSolver:  Solving for k, Initial residual = 3.41658e-07, Final residual = 9.99665e-09, No Iterations 1
ExecutionTime = 88.5 s  ExecutionStepTime = 0.76 s  ClockTime = 89 s

Time = 13036

pseudoTime: iteration 148208
Pseudo Courant No: 3
Damped pseudo Courant No: Min: 3 Mean: 3 Max: 3
Pseudo deltaT: Min: 7.1859e-09 Mean: 2.91403e-06 Max: 8.80893e-05
Solving for (rho rhoU rhoE)
  GMRES iteration: 0   Residual: 1.09046e-06 (3.92147e-07 1.01275e-06 1.54139e-18) 1.27651e-06 
  GMRES iteration: 1   Residual: 6.80738e-09 (2.47326e-09 1.28223e-09 0) 6.10035e-09 
smoothSolver:  Solving for omega, Initial residual = 7.1919e-09, Final residual = 1.20331e-11, No Iterations 1
smoothSolver:  Solving for k, Initial residual = 3.34582e-07, Final residual = 1.00097e-08, No Iterations 1
ExecutionTime = 89.23 s  ExecutionStepTime = 0.73 s  ClockTime = 89 s

Time = 13036

pseudoTime: iteration 148209
Pseudo Courant No: 3
Damped pseudo Courant No: Min: 3 Mean: 3 Max: 3
Pseudo deltaT: Min: 7.1859e-09 Mean: 2.91402e-06 Max: 8.80938e-05
Solving for (rho rhoU rhoE)
  GMRES iteration: 0   Residual: 1.11352e-06 (3.95388e-07 1.01336e-06 1.54139e-18) 1.30601e-06 
  GMRES iteration: 1   Residual: 6.61283e-09 (2.493e-09 1.32609e-09 0) 5.91734e-09 
smoothSolver:  Solving for omega, Initial residual = 7.24771e-09, Final residual = 1.21167e-11, No Iterations 1
smoothSolver:  Solving for k, Initial residual = 3.29757e-07, Final residual = 1.00214e-08, No Iterations 1
ExecutionTime = 90.05 s  ExecutionStepTime = 0.82 s  ClockTime = 90 s

Time = 13037

pseudoTime: iteration 148210
Pseudo Courant No: 3
Damped pseudo Courant No: Min: 3 Mean: 3 Max: 3
Pseudo deltaT: Min: 7.1859e-09 Mean: 2.91402e-06 Max: 8.80899e-05
Solving for (rho rhoU rhoE)
  GMRES iteration: 0   Residual: 1.12681e-06 (4.04167e-07 1.01709e-06 1.54139e-18) 1.32096e-06 
  GMRES iteration: 1   Residual: 7.2372e-09 (2.02749e-09 1.11349e-09 0) 6.49292e-09 
smoothSolver:  Solving for omega, Initial residual = 7.2602e-09, Final residual = 1.21966e-11, No Iterations 1
smoothSolver:  Solving for k, Initial residual = 3.25987e-07, Final residual = 1.00319e-08, No Iterations 1
ExecutionTime = 90.78 s  ExecutionStepTime = 0.73 s  ClockTime = 91 s

Time = 13037

pseudoTime: iteration 148211
Pseudo Courant No: 3
Damped pseudo Courant No: Min: 3 Mean: 3 Max: 3
Pseudo deltaT: Min: 7.1859e-09 Mean: 2.91402e-06 Max: 8.80834e-05
Solving for (rho rhoU rhoE)
  GMRES iteration: 0   Residual: 1.15161e-06 (4.02655e-07 1.02175e-06 1.54139e-18) 1.35213e-06 
  GMRES iteration: 1   Residual: 7.33581e-09 (2.71686e-09 1.40927e-09 0) 6.48463e-09 
smoothSolver:  Solving for omega, Initial residual = 7.31403e-09, Final residual = 1.23583e-11, No Iterations 1
smoothSolver:  Solving for k, Initial residual = 3.20738e-07, Final residual = 1.004e-08, No Iterations 1
ExecutionTime = 91.52 s  ExecutionStepTime = 0.74 s  ClockTime = 92 s

Time = 13037

pseudoTime: iteration 148212
Pseudo Courant No: 3
Damped pseudo Courant No: Min: 3 Mean: 3 Max: 3
Pseudo deltaT: Min: 7.1859e-09 Mean: 2.91402e-06 Max: 8.80922e-05
Solving for (rho rhoU rhoE)
  GMRES iteration: 0   Residual: 1.16926e-06 (4.04686e-07 1.02784e-06 1.54139e-18) 1.37894e-06 
  GMRES iteration: 1   Residual: 7.3392e-09 (2.73593e-09 1.44188e-09 0) 6.47254e-09 
smoothSolver:  Solving for omega, Initial residual = 7.50447e-09, Final residual = 1.25469e-11, No Iterations 1
smoothSolver:  Solving for k, Initial residual = 3.18094e-07, Final residual = 1.00462e-08, No Iterations 1
ExecutionTime = 92.28 s  ExecutionStepTime = 0.76 s  ClockTime = 92 s

Time = 13038

pseudoTime: iteration 148213
Pseudo Courant No: 3
Damped pseudo Courant No: Min: 3 Mean: 3 Max: 3
Pseudo deltaT: Min: 7.1859e-09 Mean: 2.91403e-06 Max: 8.80917e-05
Solving for (rho rhoU rhoE)
  GMRES iteration: 0   Residual: 1.15196e-06 (4.05636e-07 1.03099e-06 1.54139e-18) 1.35442e-06 
  GMRES iteration: 1   Residual: 7.16623e-09 (2.66509e-09 1.43937e-09 0) 6.28748e-09 
smoothSolver:  Solving for omega, Initial residual = 7.51746e-09, Final residual = 1.27385e-11, No Iterations 1
smoothSolver:  Solving for k, Initial residual = 3.14707e-07, Final residual = 1.00502e-08, No Iterations 1
ExecutionTime = 93.04 s  ExecutionStepTime = 0.76 s  ClockTime = 93 s

Time = 13038

pseudoTime: iteration 148214
Pseudo Courant No: 3
Damped pseudo Courant No: Min: 3 Mean: 3 Max: 3
Pseudo deltaT: Min: 7.1859e-09 Mean: 2.91402e-06 Max: 8.80897e-05
Solving for (rho rhoU rhoE)
[...]
Pseudo deltaT: Min: 7.18588e-09 Mean: 2.91402e-06 Max: 8.80868e-05
Solving for (rho rhoU rhoE)
  GMRES iteration: 0   Residual: 1.01543e-06 (4.13882e-07 1.02972e-06 1.54138e-18) 1.21129e-06 
  GMRES iteration: 1   Residual: 7.3257e-09 (2.83147e-09 1.44423e-09 0) 6.61345e-09 
smoothSolver:  Solving for omega, Initial residual = 6.756e-09, Final residual = 1.22745e-11, No Iterations 1
smoothSolver:  Solving for k, Initial residual = 2.76627e-07, Final residual = 9.60628e-09, No Iterations 1
ExecutionTime = 148.35 s  ExecutionStepTime = 0.87 s  ClockTime = 149 s

Time = 13062

pseudoTime: iteration 148286
Pseudo Courant No: 3
Damped pseudo Courant No: Min: 3 Mean: 3 Max: 3
Pseudo deltaT: Min: 7.18588e-09 Mean: 2.91402e-06 Max: 8.80897e-05
Solving for (rho rhoU rhoE)
  GMRES iteration: 0   Residual: 1.03887e-06 (4.22194e-07 1.03917e-06 1.54138e-18) 1.24302e-06 
  GMRES iteration: 1   Residual: 6.88459e-09 (2.59589e-09 1.42102e-09 0) 6.27915e-09 
smoothSolver:  Solving for omega, Initial residual = 6.68638e-09, Final residual = 1.21399e-11, No Iterations 1
smoothSolver:  Solving for k, Initial residual = 2.76019e-07, Final residual = 9.62851e-09, No Iterations 1
ExecutionTime = 149.2 s  ExecutionStepTime = 0.85 s  ClockTime = 149 s

Time = 13062

pseudoTime: iteration 148287
Pseudo Courant No: 3
Damped pseudo Courant No: Min: 3 Mean: 3 Max: 3
Pseudo deltaT: Min: 7.18588e-09 Mean: 2.91402e-06 Max: 8.80879e-05
Solving for (rho rhoU rhoE)
  GMRES iteration: 0   Residual: 1.06211e-06 (4.30142e-07 1.05275e-06 1.54138e-18) 1.27552e-06 
  GMRES iteration: 1   Residual: 6.78646e-09 (2.47865e-09 1.4365e-09 0) 6.21898e-09 
smoothSolver:  Solving for omega, Initial residual = 6.62192e-09, Final residual = 1.19074e-11, No Iterations 1
smoothSolver:  Solving for k, Initial residual = 2.75828e-07, Final residual = 9.64986e-09, No Iterations 1
bounding k, min: -0.000429631 max: 10700.6 average: 1642.94
ExecutionTime = 150.1 s  ExecutionStepTime = 0.89 s  ClockTime = 150 s

Time = 13063

pseudoTime: iteration 148288
Pseudo Courant No: 3
Damped pseudo Courant No: Min: 3 Mean: 3 Max: 3
Pseudo deltaT: Min: 7.18588e-09 Mean: 2.91402e-06 Max: 8.80855e-05
Solving for (rho rhoU rhoE)
  GMRES iteration: 0   Residual: 1.07103e-06 (4.3775e-07 1.0692e-06 1.54138e-18) 1.29374e-06 
  GMRES iteration: 1   Residual: 6.23999e-09 (2.12854e-09 1.35158e-09 0) 5.75738e-09 
smoothSolver:  Solving for omega, Initial residual = 6.52602e-09, Final residual = 1.15691e-11, No Iterations 1
smoothSolver:  Solving for k, Initial residual = 6.56655e-07, Final residual = 9.67168e-09, No Iterations 1
ExecutionTime = 150.92 s  ExecutionStepTime = 0.82 s  ClockTime = 151 s

Time = 13063

pseudoTime: iteration 148289
Pseudo Courant No: 3
Damped pseudo Courant No: Min: 3 Mean: 3 Max: 3
Pseudo deltaT: Min: 7.18588e-09 Mean: 2.91402e-06 Max: 8.80898e-05
Solving for (rho rhoU rhoE)
  GMRES iteration: 0   Residual: 1.10314e-06 (4.48365e-07 1.07971e-06 1.54138e-18) 1.32995e-06 
  GMRES iteration: 1   Residual: 6.8262e-09 (2.24167e-09 1.43598e-09 0) 6.20704e-09 
smoothSolver:  Solving for omega, Initial residual = 6.39509e-09, Final residual = 1.11859e-11, No Iterations 1
smoothSolver:  Solving for k, Initial residual = 5.57932e-07, Final residual = 9.69086e-09, No Iterations 1
ExecutionTime = 151.8 s  ExecutionStepTime = 0.88 s  ClockTime = 152 s

Time = 13063

pseudoTime: iteration 148290
Pseudo Courant No: 3
Damped pseudo Courant No: Min: 3 Mean: 3 Max: 3
Pseudo deltaT: Min: 7.18588e-09 Mean: 2.91402e-06 Max: 8.80932e-05
Solving for (rho rhoU rhoE)
  GMRES iteration: 0   Residual: 1.09564e-06 (4.58129e-07 1.09128e-06 1.54138e-18) 1.32964e-06 
  GMRES iteration: 1   Residual: 6.51443e-09 (2.11689e-09 1.4184e-09 0) 5.93651e-09 
smoothSolver:  Solving for omega, Initial residual = 6.1973e-09, Final residual = 1.07456e-11, No Iterations 1
smoothSolver:  Solving for k, Initial residual = 4.85064e-07, Final residual = 9.70908e-09, No Iterations 1
ExecutionTime = 152.66 s  ExecutionStepTime = 0.86 s  ClockTime = 153 s

Time = 13064

pseudoTime: iteration 148291
Pseudo Courant No: 3
Damped pseudo Courant No: Min: 3 Mean: 3 Max: 3
Pseudo deltaT: Min: 7.18588e-09 Mean: 2.91402e-06 Max: 8.80903e-05
Solving for (rho rhoU rhoE)
  GMRES iteration: 0   Residual: 1.08692e-06 (4.63202e-07 1.10343e-06 1.54138e-18) 1.32411e-06 
  GMRES iteration: 1   Residual: 6.34105e-09 (2.09961e-09 1.44839e-09 0) 5.78692e-09 
smoothSolver:  Solving for omega, Initial residual = 5.9025e-09, Final residual = 1.02652e-11, No Iterations 1
smoothSolver:  Solving for k, Initial residual = 4.28596e-07, Final residual = 9.72623e-09, No Iterations 1
ExecutionTime = 153.51 s  ExecutionStepTime = 0.85 s  ClockTime = 154 s

Time = 13064

pseudoTime: iteration 148292
Pseudo Courant No: 3
Damped pseudo Courant No: Min: 3 Mean: 3 Max: 3
Pseudo deltaT: Min: 7.18588e-09 Mean: 2.91402e-06 Max: 8.80835e-05
Solving for (rho rhoU rhoE)
  GMRES iteration: 0   Residual: 1.14123e-06 (4.73589e-07 1.10943e-06 1.54138e-18) 1.39382e-06 
  GMRES iteration: 1   Residual: 6.17734e-09 (2.00685e-09 1.41851e-09 0) 5.6323e-09 
smoothSolver:  Solving for omega, Initial residual = 5.80284e-09, Final residual = 9.89378e-12, No Iterations 1
smoothSolver:  Solving for k, Initial residual = 3.86382e-07, Final residual = 9.74228e-09, No Iterations 1
ExecutionTime = 154.32 s  ExecutionStepTime = 0.81 s  ClockTime = 154 s

Time = 13064

pseudoTime: iteration 148293
Pseudo Courant No: 3
Damped pseudo Courant No: Min: 3 Mean: 3 Max: 3
Pseudo deltaT: Min: 7.18588e-09 Mean: 2.91402e-06 Max: 8.80905e-05
Solving for (rho rhoU rhoE)
  GMRES iteration: 0   Residual: 1.12571e-06 (4.81984e-07 1.11926e-06 1.54138e-18) 1.3828e-06 
  GMRES iteration: 1   Residual: 5.89039e-09 (1.92135e-09 1.39086e-09 0) 5.41518e-09 
smoothSolver:  Solving for omega, Initial residual = 5.67058e-09, Final residual = 9.63931e-12, No Iterations 1
smoothSolver:  Solving for k, Initial residual = 3.70673e-07, Final residual = 9.75669e-09, No Iterations 1
ExecutionTime = 155.12 s  ExecutionStepTime = 0.8 s  ClockTime = 155 s

Time = 13065

pseudoTime: iteration 148294
Pseudo Courant No: 3
Damped pseudo Courant No: Min: 3 Mean: 3 Max: 3
Pseudo deltaT: Min: 7.18588e-09 Mean: 2.91402e-06 Max: 8.80932e-05
Solving for (rho rhoU rhoE)
  GMRES iteration: 0   Residual: 1.1399e-06 (4.93055e-07 1.11889e-06 1.54138e-18) 1.41066e-06 
  GMRES iteration: 1   Residual: 6.3568e-09 (1.88367e-09 1.27537e-09 0) 5.83912e-09 
smoothSolver:  Solving for omega, Initial residual = 5.7656e-09, Final residual = 9.81832e-12, No Iterations 1
smoothSolver:  Solving for k, Initial residual = 3.59122e-07, Final residual = 9.76966e-09, No Iterations 1
ExecutionTime = 156.03 s  ExecutionStepTime = 0.91 s  ClockTime = 156 s

Time = 13065

pseudoTime: iteration 148295
Pseudo Courant No: 3
Damped pseudo Courant No: Min: 3 Mean: 3 Max: 3
Pseudo deltaT: Min: 7.18587e-09 Mean: 2.91402e-06 Max: 8.80908e-05
Solving for (rho rhoU rhoE)
  GMRES iteration: 0   Residual: 1.20281e-06 (4.97901e-07 1.11852e-06 1.54138e-18) 1.51138e-06 
  GMRES iteration: 1   Residual: 5.20727e-09 (1.63443e-09 1.32517e-09 0) 4.83996e-09 
smoothSolver:  Solving for omega, Initial residual = 5.88402e-09, Final residual = 1.00009e-11, No Iterations 1
smoothSolver:  Solving for k, Initial residual = 3.45177e-07, Final residual = 9.78063e-09, No Iterations 1
ExecutionTime = 156.9 s  ExecutionStepTime = 0.87 s  ClockTime = 157 s

Time = 13065

pseudoTime: iteration 148296
Pseudo Courant No: 3
Damped pseudo Courant No: Min: 3 Mean: 3 Max: 3
Pseudo deltaT: Min: 7.18587e-09 Mean: 2.91402e-06 Max: 8.80877e-05
Solving for (rho rhoU rhoE)
  GMRES iteration: 0   Residual: 1.23598e-06 (5.05618e-07 1.12038e-06 1.54138e-18) 1.58189e-06 
  GMRES iteration: 1   Residual: 5.72344e-09 (1.8681e-09 1.40388e-09 0) 5.29284e-09 
smoothSolver:  Solving for omega, Initial residual = 6.04202e-09, Final residual = 1.02036e-11, No Iterations 1
smoothSolver:  Solving for k, Initial residual = 3.3807e-07, Final residual = 9.79016e-09, No Iterations 1
ExecutionTime = 157.72 s  ExecutionStepTime = 0.82 s  ClockTime = 158 s

Time = 13066

pseudoTime: iteration 148297
Pseudo Courant No: 3
Damped pseudo Courant No: Min: 3 Mean: 3 Max: 3
Pseudo deltaT: Min: 7.18587e-09 Mean: 2.91402e-06 Max: 8.80858e-05
Solving for (rho rhoU rhoE)
  GMRES iteration: 0   Residual: 1.25923e-06 (5.11421e-07 1.11964e-06 1.54139e-18) 1.61044e-06 
  GMRES iteration: 1   Residual: 5.94343e-09 (1.8927e-09 1.37897e-09 0) 5.44898e-09 
smoothSolver:  Solving for omega, Initial residual = 6.14411e-09, Final residual = 1.03793e-11, No Iterations 1
smoothSolver:  Solving for k, Initial residual = 3.31753e-07, Final residual = 9.79802e-09, No Iterations 1
ExecutionTime = 158.59 s  ExecutionStepTime = 0.87 s  ClockTime = 159 s

Time = 13066

pseudoTime: iteration 148298
Pseudo Courant No: 3
Damped pseudo Courant No: Min: 3 Mean: 3 Max: 3
Pseudo deltaT: Min: 7.18587e-09 Mean: 2.91402e-06 Max: 8.80893e-05
Solving for (rho rhoU rhoE)
  GMRES iteration: 0   Residual: 1.3489e-06 (5.19678e-07 1.11142e-06 1.54139e-18) 1.74242e-06 
  GMRES iteration: 1   Residual: 6.164e-09 (1.93497e-09 1.3779e-09 0) 5.64276e-09 
smoothSolver:  Solving for omega, Initial residual = 6.24916e-09, Final residual = 1.05393e-11, No Iterations 1
smoothSolver:  Solving for k, Initial residual = 3.24823e-07, Final residual = 9.8042e-09, No Iterations 1
ExecutionTime = 159.48 s  ExecutionStepTime = 0.89 s  ClockTime = 160 s

Time = 13066

pseudoTime: iteration 148299
Pseudo Courant No: 3
Damped pseudo Courant No: Min: 3 Mean: 3 Max: 3
Pseudo deltaT: Min: 7.18587e-09 Mean: 2.91402e-06 Max: 8.8092e-05
Solving for (rho rhoU rhoE)
  GMRES iteration: 0   Residual: 1.3639e-06 (5.21414e-07 1.11438e-06 1.54139e-18) 1.76117e-06 
  GMRES iteration: 1   Residual: 5.6389e-09 (1.7495e-09 1.35715e-09 0) 5.20858e-09 
smoothSolver:  Solving for omega, Initial residual = 6.2944e-09, Final residual = 1.06402e-11, No Iterations 1
smoothSolver:  Solving for k, Initial residual = 3.20067e-07, Final residual = 9.80858e-09, No Iterations 1
ExecutionTime = 160.25 s  ExecutionStepTime = 0.77 s  ClockTime = 160 s

Time = 13067

pseudoTime: iteration 148300
Pseudo Courant No: 3
Damped pseudo Courant No: Min: 3 Mean: 3 Max: 3
Pseudo deltaT: Min: 7.18587e-09 Mean: 2.91402e-06 Max: 8.80941e-05
Solving for (rho rhoU rhoE)
  GMRES iteration: 0   Residual: 1.44727e-06 (5.27903e-07 1.1065e-06 1.54139e-18) 1.85933e-06 
  GMRES iteration: 1   Residual: 6.17519e-09 (1.88773e-09 1.3386e-09 0) 5.63621e-09 
smoothSolver:  Solving for omega, Initial residual = 6.3854e-09, Final residual = 1.0682e-11, No Iterations 1
smoothSolver:  Solving for k, Initial residual = 3.16444e-07, Final residual = 9.81234e-09, No Iterations 1
ExecutionTime = 161.09 s  ExecutionStepTime = 0.84 s  ClockTime = 161 s

Time = 13067

pseudoTime: iteration 148301
Pseudo Courant No: 3
Damped pseudo Courant No: Min: 3 Mean: 3 Max: 3
Pseudo deltaT: Min: 7.18587e-09 Mean: 2.91402e-06 Max: 8.80907e-05
Solving for (rho rhoU rhoE)
  GMRES iteration: 0   Residual: 1.50686e-06 (5.30244e-07 1.11156e-06 1.54139e-18) 1.93349e-06 
  GMRES iteration: 1   Residual: 5.75829e-09 (1.80751e-09 1.34881e-09 0) 5.27598e-09 
smoothSolver:  Solving for omega, Initial residual = 6.36903e-09, Final residual = 1.06395e-11, No Iterations 1
smoothSolver:  Solving for k, Initial residual = 3.11322e-07, Final residual = 9.81508e-09, No Iterations 1
ExecutionTime = 161.95 s  ExecutionStepTime = 0.86 s  ClockTime = 162 s

Time = 13067

pseudoTime: iteration 148302
Pseudo Courant No: 3
Damped pseudo Courant No: Min: 3 Mean: 3 Max: 3
Pseudo deltaT: Min: 7.18587e-09 Mean: 2.91402e-06 Max: 8.80894e-05
Solving for (rho rhoU rhoE)
  GMRES iteration: 0   Residual: 1.51545e-06 (5.33788e-07 1.11314e-06 1.54139e-18) 1.9369e-06 
  GMRES iteration: 1   Residual: 5.97026e-09 (1.88016e-09 1.33132e-09 0) 5.46159e-09 
smoothSolver:  Solving for omega, Initial residual = 6.26745e-09, Final residual = 1.05048e-11, No Iterations 1
smoothSolver:  Solving for k, Initial residual = 3.08963e-07, Final residual = 9.81741e-09, No Iterations 1
ExecutionTime = 162.74 s  ExecutionStepTime = 0.79 s  ClockTime = 163 s

Time = 13068

pseudoTime: iteration 148303
Pseudo Courant No: 3
Damped pseudo Courant No: Min: 3 Mean: 3 Max: 3
Pseudo deltaT: Min: 7.18587e-09 Mean: 2.91402e-06 Max: 8.80871e-05
Solving for (rho rhoU rhoE)
  GMRES iteration: 0   Residual: 1.56988e-06 (5.34057e-07 1.11533e-06 1.54139e-18) 2.00153e-06 
  GMRES iteration: 1   Residual: 5.33938e-09 (1.68301e-09 1.334e-09 0) 4.87795e-09 
smoothSolver:  Solving for omega, Initial residual = 6.20379e-09, Final residual = 1.03737e-11, No Iterations 1
smoothSolver:  Solving for k, Initial residual = 3.05818e-07, Final residual = 9.81928e-09, No Iterations 1
ExecutionTime = 163.44 s  ExecutionStepTime = 0.7 s  ClockTime = 164 s

Time = 13068

pseudoTime: iteration 148304
Pseudo Courant No: 3
Damped pseudo Courant No: Min: 3 Mean: 3 Max: 3
Pseudo deltaT: Min: 7.18587e-09 Mean: 2.91402e-06 Max: 8.80896e-05
Solving for (rho rhoU rhoE)
  GMRES iteration: 0   Residual: 1.59319e-06 (5.33336e-07 1.12708e-06 1.54139e-18) 2.02438e-06 
  GMRES iteration: 1   Residual: 5.36941e-09 (1.69928e-09 1.29812e-09 0) 4.89875e-09 
smoothSolver:  Solving for omega, Initial residual = 6.15469e-09, Final residual = 1.02065e-11, No Iterations 1
smoothSolver:  Solving for k, Initial residual = 3.02762e-07, Final residual = 9.82095e-09, No Iterations 1
ExecutionTime = 164.18 s  ExecutionStepTime = 0.74 s  ClockTime = 164 s

Time = 13068

pseudoTime: iteration 148305
Pseudo Courant No: 3
Damped pseudo Courant No: Min: 3 Mean: 3 Max: 3
Pseudo deltaT: Min: 7.18587e-09 Mean: 2.91402e-06 Max: 8.8093e-05
Solving for (rho rhoU rhoE)
  GMRES iteration: 0   Residual: 1.60553e-06 (5.39032e-07 1.13208e-06 1.5414e-18) 2.03131e-06 
  GMRES iteration: 1   Residual: 6.53709e-09 (1.86736e-09 1.34358e-09 0) 5.9327e-09 
smoothSolver:  Solving for omega, Initial residual = 6.01177e-09, Final residual = 9.99396e-12, No Iterations 1
smoothSolver:  Solving for k, Initial residual = 3.00875e-07, Final residual = 9.82242e-09, No Iterations 1
ExecutionTime = 164.93 s  ExecutionStepTime = 0.75 s  ClockTime = 165 s

Time = 13069

pseudoTime: iteration 148306
Pseudo Courant No: 3
Damped pseudo Courant No: Min: 3 Mean: 3 Max: 3
Pseudo deltaT: Min: 7.18587e-09 Mean: 2.91402e-06 Max: 8.80891e-05
Solving for (rho rhoU rhoE)
  GMRES iteration: 0   Residual: 1.61164e-06 (5.3165e-07 1.14001e-06 1.5414e-18) 2.03614e-06 
  GMRES iteration: 1   Residual: 5.59406e-09 (1.82889e-09 1.22504e-09 0) 5.05182e-09 
smoothSolver:  Solving for omega, Initial residual = 5.89506e-09, Final residual = 9.82375e-12, No Iterations 1
smoothSolver:  Solving for k, Initial residual = 2.98747e-07, Final residual = 9.82343e-09, No Iterations 1
ExecutionTime = 165.64 s  ExecutionStepTime = 0.71 s  ClockTime = 166 s

Time = 13069

pseudoTime: iteration 148307
Pseudo Courant No: 3
Damped pseudo Courant No: Min: 3 Mean: 3 Max: 3
Pseudo deltaT: Min: 7.18587e-09 Mean: 2.91402e-06 Max: 8.80897e-05
Solving for (rho rhoU rhoE)
  GMRES iteration: 0   Residual: 1.60398e-06 (5.2935e-07 1.14921e-06 1.5414e-18) 2.01451e-06 
  GMRES iteration: 1   Residual: 5.25751e-09 (1.70847e-09 1.19324e-09 0) 4.7936e-09 
smoothSolver:  Solving for omega, Initial residual = 5.77742e-09, Final residual = 9.68619e-12, No Iterations 1
smoothSolver:  Solving for k, Initial residual = 2.96702e-07, Final residual = 9.82327e-09, No Iterations 1
ExecutionTime = 166.3 s  ExecutionStepTime = 0.66 s  ClockTime = 166 s

Time = 13069

pseudoTime: iteration 148308
Pseudo Courant No: 3
Damped pseudo Courant No: Min: 3 Mean: 3 Max: 3
Pseudo deltaT: Min: 7.18587e-09 Mean: 2.91402e-06 Max: 8.80843e-05
Solving for (rho rhoU rhoE)
  GMRES iteration: 0   Residual: 1.59293e-06 (5.2226e-07 1.15948e-06 1.5414e-18) 1.99309e-06 
  GMRES iteration: 1   Residual: 5.05139e-09 (1.70704e-09 1.2067e-09 0) 4.56257e-09 
smoothSolver:  Solving for omega, Initial residual = 5.75662e-09, Final residual = 9.55881e-12, No Iterations 1
smoothSolver:  Solving for k, Initial residual = 2.95294e-07, Final residual = 9.82245e-09, No Iterations 1
ExecutionTime = 166.99 s  ExecutionStepTime = 0.69 s  ClockTime = 167 s

Time = 13070

pseudoTime: iteration 148309
Pseudo Courant No: 3
Damped pseudo Courant No: Min: 3 Mean: 3 Max: 3
Pseudo deltaT: Min: 7.18587e-09 Mean: 2.91402e-06 Max: 8.80857e-05
Solving for (rho rhoU rhoE)
  GMRES iteration: 0   Residual: 1.55737e-06 (5.1435e-07 1.16757e-06 1.5414e-18) 1.94599e-06 
  GMRES iteration: 1   Residual: 4.68261e-09 (1.59657e-09 1.20675e-09 0) 4.23663e-09 
smoothSolver:  Solving for omega, Initial residual = 5.62477e-09, Final residual = 9.40721e-12, No Iterations 1
smoothSolver:  Solving for k, Initial residual = 2.93195e-07, Final residual = 9.82065e-09, No Iterations 1
ExecutionTime = 167.73 s  ExecutionStepTime = 0.74 s  ClockTime = 168 s

Time = 13070

pseudoTime: iteration 148310
Pseudo Courant No: 3
Damped pseudo Courant No: Min: 3 Mean: 3 Max: 3
Pseudo deltaT: Min: 7.18587e-09 Mean: 2.91402e-06 Max: 8.80883e-05
Solving for (rho rhoU rhoE)
  GMRES iteration: 0   Residual: 1.54032e-06 (5.08849e-07 1.17388e-06 1.5414e-18) 1.92047e-06 
  GMRES iteration: 1   Residual: 5.48961e-09 (1.7876e-09 1.29856e-09 0) 4.99375e-09 
smoothSolver:  Solving for omega, Initial residual = 5.51168e-09, Final residual = 9.27254e-12, No Iterations 1
smoothSolver:  Solving for k, Initial residual = 2.92194e-07, Final residual = 9.81809e-09, No Iterations 1
ExecutionTime = 168.48 s  ExecutionStepTime = 0.75 s  ClockTime = 169 s

Time = 13070

pseudoTime: iteration 148311
Pseudo Courant No: 3
Damped pseudo Courant No: Min: 3 Mean: 3 Max: 3
Pseudo deltaT: Min: 7.18587e-09 Mean: 2.91402e-06 Max: 8.80908e-05
Solving for (rho rhoU rhoE)
  GMRES iteration: 0   Residual: 1.51124e-06 (5.00167e-07 1.18097e-06 1.5414e-18) 1.89415e-06 
  GMRES iteration: 1   Residual: 4.59617e-09 (1.55547e-09 1.2184e-09 0) 4.22391e-09 
smoothSolver:  Solving for omega, Initial residual = 5.39113e-09, Final residual = 9.09487e-12, No Iterations 1
smoothSolver:  Solving for k, Initial residual = 2.90634e-07, Final residual = 9.81403e-09, No Iterations 1
ExecutionTime = 169.22 s  ExecutionStepTime = 0.74 s  ClockTime = 169 s

Time = 13071

pseudoTime: iteration 148312
Pseudo Courant No: 3
Damped pseudo Courant No: Min: 3 Mean: 3 Max: 3
Pseudo deltaT: Min: 7.18587e-09 Mean: 2.91402e-06 Max: 8.80917e-05
Solving for (rho rhoU rhoE)
  GMRES iteration: 0   Residual: 1.4808e-06 (4.8949e-07 1.19328e-06 1.54141e-18) 1.85147e-06 
  GMRES iteration: 1   Residual: 5.23472e-09 (1.86925e-09 1.31196e-09 0) 4.74889e-09 
smoothSolver:  Solving for omega, Initial residual = 5.41931e-09, Final residual = 8.98852e-12, No Iterations 1
smoothSolver:  Solving for k, Initial residual = 2.89408e-07, Final residual = 9.80847e-09, No Iterations 1
ExecutionTime = 169.99 s  ExecutionStepTime = 0.77 s  ClockTime = 170 s

Time = 13071

pseudoTime: iteration 148313
Pseudo Courant No: 3
Damped pseudo Courant No: Min: 3 Mean: 3 Max: 3
Pseudo deltaT: Min: 7.18587e-09 Mean: 2.91402e-06 Max: 8.80851e-05
Solving for (rho rhoU rhoE)
  GMRES iteration: 0   Residual: 1.43692e-06 (4.79451e-07 1.19877e-06 1.54141e-18) 1.79434e-06 
  GMRES iteration: 1   Residual: 5.00268e-09 (1.81208e-09 1.31329e-09 0) 4.54035e-09 
smoothSolver:  Solving for omega, Initial residual = 5.38512e-09, Final residual = 8.99468e-12, No Iterations 1
smoothSolver:  Solving for k, Initial residual = 2.88152e-07, Final residual = 9.80085e-09, No Iterations 1
ExecutionTime = 170.89 s  ExecutionStepTime = 0.9 s  ClockTime = 171 s

Time = 13071

pseudoTime: iteration 148314
Pseudo Courant No: 3
Damped pseudo Courant No: Min: 3 Mean: 3 Max: 3
Pseudo deltaT: Min: 7.18587e-09 Mean: 2.91402e-06 Max: 8.80859e-05
Solving for (rho rhoU rhoE)
  GMRES iteration: 0   Residual: 1.36725e-06 (4.65764e-07 1.2046e-06 1.54141e-18) 1.69445e-06 
