/*---------------------------------------------------------------------------*\
| =========                 |                                                 |
| \\      /  F ield         | OpenFOAM: The Open Source CFD Toolbox           |
|  \\    /   O peration     | Version:  v2012                                 |
|   \\  /    A nd           | Website:  www.openfoam.com                      |
|    \\/     M anipulation  |                                                 |
\*---------------------------------------------------------------------------*/
Build  : v2012 OPENFOAM=2012
Arch   : "LSB;label=32;scalar=64"
Exec   : hisa -parallel
Date   : Mar 10 2025
Time   : 22:00:21
Host   : chen-virtual-machine
PID    : 381684
I/O    : uncollated
Case   : /home/chen/compression_ramp_2caseVaMa_PrtAndBeta/foam_base/case1
nProcs : 8
Hosts  :
(
    (chen-virtual-machine 8)
)
Pstream initialized with:
    floatTransfer      : 0
    nProcsSimpleSum    : 0
    commsType          : nonBlocking
    polling iterations : 0
trapFpe: Floating point exception trapping enabled (FOAM_SIGFPE).
fileModificationChecking : Monitoring run-time modified files using timeStampMaster (fileModificationSkew 5, maxFileModificationPolls 20)
allowSystemOperations : Allowing user-supplied system call operations

// * * * * * * * * * * * * * * * * * * * * * * * * * * * * * * * * * * * * * //
Create time

--> FOAM Warning : 
    From void Foam::Time::setControls()
    in file db/Time/Time.C at line 335
    Reading "/home/chen/compression_ramp_2caseVaMa_PrtAndBeta/foam_base/case1/processor0/0/uniform/time" at line 18 to 26
    Time read from time dictionary 2000 differs from actual time 0.
    This may cause unexpected database behaviour. If you are not interested
    in preserving time state delete the time dictionary.
Create mesh for time = 0, region region0
Creating static mesh

Steady-state analysis detected

pseudoTime: tolerance = 1e-07 (1e-07 1e-07 1e-07) 1e-07 , relTol = 0 (0 0 0) 0 

Local timestepping selected

Reading thermophysical properties

Selecting thermodynamics package 
{
    type            hePsiThermo;
    mixture         pureMixture;
    transport       sutherland;
    thermo          hConst;
    equationOfState perfectGas;
    specie          specie;
    energy          sensibleInternalEnergy;
}


Viscous analysis detected

Reading field U

Creating turbulence model

Selecting turbulence model type RAS
Selecting RAS turbulence model kOmegaSST
Selecting patchDistMethod meshWave
RAS
{
    RASModel        kOmegaSST;
    turbulence      on;
    betannmodel     0;
    printCoeffs     on;
    alphaK1         0.85;
    alphaK2         1;
    alphaOmega1     0.5;
    alphaOmega2     0.856;
    gamma1          0.555556;
    gamma2          0.44;
    beta1           0.075;
    beta2           0.0828;
    betaStar        0.09;
    a1              0.31;
    b1              1;
    c1              10;
    F3              false;
    cor             1;
    begin           0;
    end             1;
    Main            9.22;
    sca             1;
    betascalar      1;
    height1         0;
    height2         0.1;
    ybegin          0.1;
    decayControl    false;
    kInf            0;
    omegaInf        0;
}


Creating flux scheme

Selecting flux scheme AUSMPlusUp

No finite volume options present
Initial pseudo Courant No: Min: 3 Mean: 3 Max: 3


Starting pseudotime iteration loop

Time = 0

pseudoTime: iteration 152101
Pseudo Courant No: 3
Damped pseudo Courant No: Min: 3 Mean: 3 Max: 3
Pseudo deltaT: Min: 7.19139e-09 Mean: 2.93103e-06 Max: 8.81011e-05
Solving for (rho rhoU rhoE)
  GMRES iteration: 0   Residual: 1.92334e-05 (3.82881e-06 3.03619e-06 1.57243e-18) 1.99402e-05 
  GMRES iteration: 1   Residual: 4.83445e-08 (9.64111e-09 1.06862e-08 0) 4.1906e-08 
smoothSolver:  Solving for omega, Initial residual = 5.19661e-08, Final residual = 1.01439e-10, No Iterations 1
smoothSolver:  Solving for k, Initial residual = 4.92902e-06, Final residual = 1.70353e-07, No Iterations 1
ExecutionTime = 0.16 s  ExecutionStepTime = 0.08 s  ClockTime = 0 s

Time = 1

pseudoTime: iteration 152102
Pseudo Courant No: 3
Damped pseudo Courant No: Min: 3 Mean: 3 Max: 3
Pseudo deltaT: Min: 7.19139e-09 Mean: 2.93103e-06 Max: 8.80956e-05
Solving for (rho rhoU rhoE)
  GMRES iteration: 0   Residual: 1.97034e-05 (4.11743e-06 4.64852e-06 1.57243e-18) 2.05352e-05 
  GMRES iteration: 1   Residual: 4.83853e-08 (9.63224e-09 1.45734e-08 0) 4.50585e-08 
smoothSolver:  Solving for omega, Initial residual = 4.4083e-08, Final residual = 9.077e-11, No Iterations 1
smoothSolver:  Solving for k, Initial residual = 4.92619e-06, Final residual = 1.70452e-07, No Iterations 1
ExecutionTime = 0.21 s  ExecutionStepTime = 0.05 s  ClockTime = 0 s

Time = 2

pseudoTime: iteration 152103
Pseudo Courant No: 3
Damped pseudo Courant No: Min: 3 Mean: 3 Max: 3
Pseudo deltaT: Min: 7.1914e-09 Mean: 2.93104e-06 Max: 8.8094e-05
Solving for (rho rhoU rhoE)
  GMRES iteration: 0   Residual: 2.0048e-05 (3.73744e-06 2.62781e-06 1.57244e-18) 2.093e-05 
  GMRES iteration: 1   Residual: 4.7537e-08 (9.62021e-09 1.14253e-08 0) 4.13967e-08 
smoothSolver:  Solving for omega, Initial residual = 4.62058e-08, Final residual = 8.66413e-11, No Iterations 1
smoothSolver:  Solving for k, Initial residual = 4.92425e-06, Final residual = 1.70539e-07, No Iterations 1
ExecutionTime = 0.25 s  ExecutionStepTime = 0.04 s  ClockTime = 0 s

Time = 2

pseudoTime: iteration 152104
Pseudo Courant No: 3
Damped pseudo Courant No: Min: 3 Mean: 3 Max: 3
Pseudo deltaT: Min: 7.1914e-09 Mean: 2.93104e-06 Max: 8.81013e-05
Solving for (rho rhoU rhoE)
  GMRES iteration: 0   Residual: 1.9385e-05 (3.65639e-06 2.44458e-06 1.57244e-18) 1.98245e-05 
  GMRES iteration: 1   Residual: 4.88602e-08 (9.80582e-09 1.10093e-08 0) 4.25289e-08 
smoothSolver:  Solving for omega, Initial residual = 4.06746e-08, Final residual = 8.16184e-11, No Iterations 1
smoothSolver:  Solving for k, Initial residual = 4.92302e-06, Final residual = 1.70603e-07, No Iterations 1
ExecutionTime = 0.3 s  ExecutionStepTime = 0.05 s  ClockTime = 0 s

Time = 2

pseudoTime: iteration 152105
Pseudo Courant No: 3
Damped pseudo Courant No: Min: 3 Mean: 3 Max: 3
Pseudo deltaT: Min: 7.1914e-09 Mean: 2.93104e-06 Max: 8.8096e-05
Solving for (rho rhoU rhoE)
  GMRES iteration: 0   Residual: 1.92036e-05 (3.63979e-06 2.32847e-06 1.57245e-18) 1.9507e-05 
  GMRES iteration: 1   Residual: 4.62402e-08 (9.29403e-09 1.30718e-08 0) 4.17812e-08 
smoothSolver:  Solving for omega, Initial residual = 3.97052e-08, Final residual = 7.96762e-11, No Iterations 1
smoothSolver:  Solving for k, Initial residual = 4.92112e-06, Final residual = 1.70664e-07, No Iterations 1
ExecutionTime = 0.36 s  ExecutionStepTime = 0.06 s  ClockTime = 0 s

Time = 3

pseudoTime: iteration 152106
Pseudo Courant No: 3
Damped pseudo Courant No: Min: 3 Mean: 3 Max: 3
Pseudo deltaT: Min: 7.1914e-09 Mean: 2.93105e-06 Max: 8.81014e-05
Solving for (rho rhoU rhoE)
  GMRES iteration: 0   Residual: 1.92041e-05 (3.64117e-06 2.25724e-06 1.57246e-18) 1.94903e-05 
  GMRES iteration: 1   Residual: 4.76826e-08 (9.55186e-09 1.32171e-08 0) 4.28923e-08 
smoothSolver:  Solving for omega, Initial residual = 3.95221e-08, Final residual = 7.81275e-11, No Iterations 1
smoothSolver:  Solving for k, Initial residual = 4.92102e-06, Final residual = 1.70728e-07, No Iterations 1
ExecutionTime = 0.41 s  ExecutionStepTime = 0.05 s  ClockTime = 0 s

Time = 4

pseudoTime: iteration 152107
Pseudo Courant No: 3
Damped pseudo Courant No: Min: 3 Mean: 3 Max: 3
Pseudo deltaT: Min: 7.1914e-09 Mean: 2.93105e-06 Max: 8.81013e-05
Solving for (rho rhoU rhoE)
  GMRES iteration: 0   Residual: 1.92483e-05 (3.6436e-06 2.23536e-06 1.57246e-18) 1.95253e-05 
  GMRES iteration: 1   Residual: 4.80439e-08 (9.66981e-09 1.2234e-08 0) 4.20549e-08 
smoothSolver:  Solving for omega, Initial residual = 3.92469e-08, Final residual = 7.70261e-11, No Iterations 1
smoothSolver:  Solving for k, Initial residual = 4.91886e-06, Final residual = 1.70798e-07, No Iterations 1
ExecutionTime = 0.46 s  ExecutionStepTime = 0.05 s  ClockTime = 0 s

Time = 4

pseudoTime: iteration 152108
Pseudo Courant No: 3
Damped pseudo Courant No: Min: 3 Mean: 3 Max: 3
Pseudo deltaT: Min: 7.19141e-09 Mean: 2.93106e-06 Max: 8.80937e-05
Solving for (rho rhoU rhoE)
  GMRES iteration: 0   Residual: 1.92868e-05 (3.64736e-06 2.22108e-06 1.57247e-18) 1.95651e-05 
  GMRES iteration: 1   Residual: 4.72905e-08 (9.57729e-09 1.17085e-08 0) 4.10888e-08 
smoothSolver:  Solving for omega, Initial residual = 3.87028e-08, Final residual = 7.62641e-11, No Iterations 1
smoothSolver:  Solving for k, Initial residual = 4.91972e-06, Final residual = 1.70874e-07, No Iterations 1
bounding k, min: -0.000145139 max: 8420.61 average: 1242.24
ExecutionTime = 0.51 s  ExecutionStepTime = 0.05 s  ClockTime = 0 s

Time = 4

pseudoTime: iteration 152109
Pseudo Courant No: 3
Damped pseudo Courant No: Min: 3 Mean: 3 Max: 3
Pseudo deltaT: Min: 7.19141e-09 Mean: 2.93106e-06 Max: 8.80981e-05
Solving for (rho rhoU rhoE)
  GMRES iteration: 0   Residual: 1.93598e-05 (3.65341e-06 2.20724e-06 1.57247e-18) 1.96541e-05 
  GMRES iteration: 1   Residual: 4.69187e-08 (9.83475e-09 1.49898e-08 0) 4.37158e-08 
smoothSolver:  Solving for omega, Initial residual = 3.82147e-08, Final residual = 7.56093e-11, No Iterations 1
smoothSolver:  Solving for k, Initial residual = 5.44812e-06, Final residual = 1.70955e-07, No Iterations 1
ExecutionTime = 0.57 s  ExecutionStepTime = 0.06 s  ClockTime = 0 s

Time = 5

pseudoTime: iteration 152110
Pseudo Courant No: 3
Damped pseudo Courant No: Min: 3 Mean: 3 Max: 3
Pseudo deltaT: Min: 7.19141e-09 Mean: 2.93106e-06 Max: 8.81036e-05
Solving for (rho rhoU rhoE)
  GMRES iteration: 0   Residual: 1.94266e-05 (3.66733e-06 2.2109e-06 1.57248e-18) 1.97291e-05 
  GMRES iteration: 1   Residual: 4.99669e-08 (9.96315e-09 1.04078e-08 0) 4.29959e-08 
smoothSolver:  Solving for omega, Initial residual = 3.78608e-08, Final residual = 7.5026e-11, No Iterations 1
smoothSolver:  Solving for k, Initial residual = 5.30951e-06, Final residual = 1.71035e-07, No Iterations 1
ExecutionTime = 0.62 s  ExecutionStepTime = 0.05 s  ClockTime = 0 s

Time = 6

pseudoTime: iteration 152111
Pseudo Courant No: 3
Damped pseudo Courant No: Min: 3 Mean: 3 Max: 3
Pseudo deltaT: Min: 7.19141e-09 Mean: 2.93107e-06 Max: 8.80985e-05
Solving for (rho rhoU rhoE)
  GMRES iteration: 0   Residual: 1.94623e-05 (3.66982e-06 2.20029e-06 1.57248e-18) 1.97552e-05 
  GMRES iteration: 1   Residual: 4.72379e-08 (9.4769e-09 1.218e-08 0) 4.14553e-08 
smoothSolver:  Solving for omega, Initial residual = 3.74217e-08, Final residual = 7.45264e-11, No Iterations 1
smoothSolver:  Solving for k, Initial residual = 5.20647e-06, Final residual = 1.71116e-07, No Iterations 1
ExecutionTime = 0.68 s  ExecutionStepTime = 0.06 s  ClockTime = 0 s

Time = 6

pseudoTime: iteration 152112
Pseudo Courant No: 3
Damped pseudo Courant No: Min: 3 Mean: 3 Max: 3
Pseudo deltaT: Min: 7.19141e-09 Mean: 2.93107e-06 Max: 8.8096e-05
Solving for (rho rhoU rhoE)
  GMRES iteration: 0   Residual: 1.95848e-05 (3.67959e-06 2.18869e-06 1.57249e-18) 1.99112e-05 
  GMRES iteration: 1   Residual: 4.83272e-08 (9.69523e-09 1.22803e-08 0) 4.24711e-08 
smoothSolver:  Solving for omega, Initial residual = 3.75965e-08, Final residual = 7.42997e-11, No Iterations 1
smoothSolver:  Solving for k, Initial residual = 5.12834e-06, Final residual = 1.71197e-07, No Iterations 1
ExecutionTime = 0.74 s  ExecutionStepTime = 0.06 s  ClockTime = 1 s

Time = 6

pseudoTime: iteration 152113
Pseudo Courant No: 3
Damped pseudo Courant No: Min: 3 Mean: 3 Max: 3
Pseudo deltaT: Min: 7.19141e-09 Mean: 2.93107e-06 Max: 8.80961e-05
Solving for (rho rhoU rhoE)
  GMRES iteration: 0   Residual: 1.96398e-05 (3.69135e-06 2.19197e-06 1.57249e-18) 1.99681e-05 
  GMRES iteration: 1   Residual: 4.75647e-08 (9.71125e-09 1.26631e-08 0) 4.195e-08 
smoothSolver:  Solving for omega, Initial residual = 3.75126e-08, Final residual = 7.42431e-11, No Iterations 1
smoothSolver:  Solving for k, Initial residual = 5.06835e-06, Final residual = 1.71276e-07, No Iterations 1
ExecutionTime = 0.79 s  ExecutionStepTime = 0.05 s  ClockTime = 1 s

Time = 7

pseudoTime: iteration 152114
Pseudo Courant No: 3
Damped pseudo Courant No: Min: 3 Mean: 3 Max: 3
Pseudo deltaT: Min: 7.19142e-09 Mean: 2.93108e-06 Max: 8.80989e-05
Solving for (rho rhoU rhoE)
  GMRES iteration: 0   Residual: 1.97105e-05 (3.70294e-06 2.1782e-06 1.5725e-18) 2.00449e-05 
  GMRES iteration: 1   Residual: 5.06722e-08 (9.95073e-09 1.00867e-08 0) 4.3772e-08 
smoothSolver:  Solving for omega, Initial residual = 3.74769e-08, Final residual = 7.4186e-11, No Iterations 1
smoothSolver:  Solving for k, Initial residual = 5.04962e-06, Final residual = 1.71354e-07, No Iterations 1
ExecutionTime = 0.84 s  ExecutionStepTime = 0.05 s  ClockTime = 1 s

Time = 8

pseudoTime: iteration 152115
Pseudo Courant No: 3
Damped pseudo Courant No: Min: 3 Mean: 3 Max: 3
Pseudo deltaT: Min: 7.19142e-09 Mean: 2.93108e-06 Max: 8.80948e-05
Solving for (rho rhoU rhoE)
  GMRES iteration: 0   Residual: 1.97886e-05 (3.70986e-06 2.17156e-06 1.5725e-18) 2.01396e-05 
  GMRES iteration: 1   Residual: 4.80546e-08 (9.68444e-09 1.41541e-08 0) 4.38876e-08 
smoothSolver:  Solving for omega, Initial residual = 3.74305e-08, Final residual = 7.41169e-11, No Iterations 1
smoothSolver:  Solving for k, Initial residual = 5.03261e-06, Final residual = 1.71432e-07, No Iterations 1
ExecutionTime = 0.89 s  ExecutionStepTime = 0.05 s  ClockTime = 1 s

Time = 8

pseudoTime: iteration 152116
Pseudo Courant No: 3
Damped pseudo Courant No: Min: 3 Mean: 3 Max: 3
Pseudo deltaT: Min: 7.19142e-09 Mean: 2.93108e-06 Max: 8.80941e-05
Solving for (rho rhoU rhoE)
  GMRES iteration: 0   Residual: 1.9896e-05 (3.72275e-06 2.17113e-06 1.57251e-18) 2.02669e-05 
  GMRES iteration: 1   Residual: 4.95059e-08 (9.9195e-09 1.19278e-08 0) 4.29545e-08 
smoothSolver:  Solving for omega, Initial residual = 3.74358e-08, Final residual = 7.3959e-11, No Iterations 1
smoothSolver:  Solving for k, Initial residual = 5.01265e-06, Final residual = 1.71508e-07, No Iterations 1
ExecutionTime = 0.95 s  ExecutionStepTime = 0.06 s  ClockTime = 1 s

Time = 8

pseudoTime: iteration 152117
Pseudo Courant No: 3
Damped pseudo Courant No: Min: 3 Mean: 3 Max: 3
Pseudo deltaT: Min: 7.19142e-09 Mean: 2.93109e-06 Max: 8.8101e-05
Solving for (rho rhoU rhoE)
  GMRES iteration: 0   Residual: 1.99641e-05 (3.7303e-06 2.16496e-06 1.57251e-18) 2.03376e-05 
  GMRES iteration: 1   Residual: 4.9581e-08 (9.97451e-09 1.29712e-08 0) 4.38106e-08 
smoothSolver:  Solving for omega, Initial residual = 3.74583e-08, Final residual = 7.39947e-11, No Iterations 1
smoothSolver:  Solving for k, Initial residual = 5.00458e-06, Final residual = 1.71582e-07, No Iterations 1
ExecutionTime = 1.01 s  ExecutionStepTime = 0.06 s  ClockTime = 1 s

Time = 9

pseudoTime: iteration 152118
Pseudo Courant No: 3
Damped pseudo Courant No: Min: 3 Mean: 3 Max: 3
Pseudo deltaT: Min: 7.19142e-09 Mean: 2.93109e-06 Max: 8.80993e-05
Solving for (rho rhoU rhoE)
  GMRES iteration: 0   Residual: 2.004e-05 (3.74122e-06 2.16033e-06 1.57252e-18) 2.04393e-05 
  GMRES iteration: 1   Residual: 4.83789e-08 (9.82175e-09 1.3854e-08 0) 4.35114e-08 
smoothSolver:  Solving for omega, Initial residual = 3.74456e-08, Final residual = 7.41231e-11, No Iterations 1
smoothSolver:  Solving for k, Initial residual = 4.99482e-06, Final residual = 1.71655e-07, No Iterations 1
ExecutionTime = 1.06 s  ExecutionStepTime = 0.05 s  ClockTime = 1 s

Time = 10

pseudoTime: iteration 152119
Pseudo Courant No: 3
Damped pseudo Courant No: Min: 3 Mean: 3 Max: 3
Pseudo deltaT: Min: 7.19143e-09 Mean: 2.9311e-06 Max: 8.80968e-05
Solving for (rho rhoU rhoE)
  GMRES iteration: 0   Residual: 2.01373e-05 (3.75523e-06 2.16318e-06 1.57252e-18) 2.0551e-05 
  GMRES iteration: 1   Residual: 5.20308e-08 (1.03292e-08 1.13762e-08 0) 4.49729e-08 
smoothSolver:  Solving for omega, Initial residual = 3.7585e-08, Final residual = 7.43537e-11, No Iterations 1
smoothSolver:  Solving for k, Initial residual = 4.98484e-06, Final residual = 1.71725e-07, No Iterations 1
ExecutionTime = 1.11 s  ExecutionStepTime = 0.05 s  ClockTime = 1 s

Time = 10

pseudoTime: iteration 152120
Pseudo Courant No: 3
Damped pseudo Courant No: Min: 3 Mean: 3 Max: 3
Pseudo deltaT: Min: 7.19143e-09 Mean: 2.9311e-06 Max: 8.80969e-05
Solving for (rho rhoU rhoE)
  GMRES iteration: 0   Residual: 2.01964e-05 (3.75941e-06 2.15836e-06 1.57253e-18) 2.06094e-05 
  GMRES iteration: 1   Residual: 5.10325e-08 (1.05489e-08 1.67616e-08 0) 4.88589e-08 
smoothSolver:  Solving for omega, Initial residual = 3.77307e-08, Final residual = 7.45984e-11, No Iterations 1
smoothSolver:  Solving for k, Initial residual = 4.97925e-06, Final residual = 1.71795e-07, No Iterations 1
ExecutionTime = 1.16 s  ExecutionStepTime = 0.05 s  ClockTime = 1 s

Time = 10

pseudoTime: iteration 152121
Pseudo Courant No: 3
Damped pseudo Courant No: Min: 3 Mean: 3 Max: 3
Pseudo deltaT: Min: 7.19143e-09 Mean: 2.9311e-06 Max: 8.8098e-05
Solving for (rho rhoU rhoE)
  GMRES iteration: 0   Residual: 2.02944e-05 (3.77032e-06 2.16019e-06 1.57253e-18) 2.07325e-05 
  GMRES iteration: 1   Residual: 4.98243e-08 (9.99579e-09 1.38018e-08 0) 4.44878e-08 
smoothSolver:  Solving for omega, Initial residual = 3.79194e-08, Final residual = 7.48979e-11, No Iterations 1
smoothSolver:  Solving for k, Initial residual = 4.97369e-06, Final residual = 1.71862e-07, No Iterations 1
ExecutionTime = 1.22 s  ExecutionStepTime = 0.06 s  ClockTime = 1 s

Time = 11

pseudoTime: iteration 152122
Pseudo Courant No: 3
Damped pseudo Courant No: Min: 3 Mean: 3 Max: 3
Pseudo deltaT: Min: 7.19143e-09 Mean: 2.93111e-06 Max: 8.80954e-05
Solving for (rho rhoU rhoE)
  GMRES iteration: 0   Residual: 2.03607e-05 (3.77784e-06 2.16522e-06 1.57254e-18) 2.08022e-05 
  GMRES iteration: 1   Residual: 4.93111e-08 (9.9449e-09 1.34527e-08 0) 4.38447e-08 
smoothSolver:  Solving for omega, Initial residual = 3.79876e-08, Final residual = 7.51531e-11, No Iterations 1
smoothSolver:  Solving for k, Initial residual = 4.96668e-06, Final residual = 1.71929e-07, No Iterations 1
ExecutionTime = 1.27 s  ExecutionStepTime = 0.05 s  ClockTime = 1 s

Time = 12

pseudoTime: iteration 152123
Pseudo Courant No: 3
Damped pseudo Courant No: Min: 3 Mean: 3 Max: 3
Pseudo deltaT: Min: 7.19143e-09 Mean: 2.93111e-06 Max: 8.80969e-05
Solving for (rho rhoU rhoE)
  GMRES iteration: 0   Residual: 2.04232e-05 (3.78241e-06 2.15737e-06 1.57254e-18) 2.0866e-05 
  GMRES iteration: 1   Residual: 4.96745e-08 (1.02401e-08 1.57355e-08 0) 4.64677e-08 
smoothSolver:  Solving for omega, Initial residual = 3.79836e-08, Final residual = 7.52841e-11, No Iterations 1
smoothSolver:  Solving for k, Initial residual = 4.96329e-06, Final residual = 1.71995e-07, No Iterations 1
ExecutionTime = 1.31 s  ExecutionStepTime = 0.04 s  ClockTime = 1 s

Time = 12

pseudoTime: iteration 152124
Pseudo Courant No: 3
Damped pseudo Courant No: Min: 3 Mean: 3 Max: 3
Pseudo deltaT: Min: 7.19143e-09 Mean: 2.93111e-06 Max: 8.80961e-05
Solving for (rho rhoU rhoE)
  GMRES iteration: 0   Residual: 2.05251e-05 (3.78886e-06 2.15607e-06 1.57255e-18) 2.0992e-05 
  GMRES iteration: 1   Residual: 4.9421e-08 (1.01236e-08 1.44059e-08 0) 4.46742e-08 
smoothSolver:  Solving for omega, Initial residual = 3.807e-08, Final residual = 7.52679e-11, No Iterations 1
smoothSolver:  Solving for k, Initial residual = 4.95865e-06, Final residual = 1.72063e-07, No Iterations 1
ExecutionTime = 1.36 s  ExecutionStepTime = 0.05 s  ClockTime = 1 s

Time = 12

pseudoTime: iteration 152125
Pseudo Courant No: 3
Damped pseudo Courant No: Min: 3 Mean: 3 Max: 3
Pseudo deltaT: Min: 7.19144e-09 Mean: 2.93112e-06 Max: 8.80989e-05
Solving for (rho rhoU rhoE)
  GMRES iteration: 0   Residual: 2.05758e-05 (3.8009e-06 2.15891e-06 1.57255e-18) 2.1044e-05 
  GMRES iteration: 1   Residual: 5.22825e-08 (1.03693e-08 1.15359e-08 0) 4.50879e-08 
smoothSolver:  Solving for omega, Initial residual = 3.79258e-08, Final residual = 7.51364e-11, No Iterations 1
smoothSolver:  Solving for k, Initial residual = 4.9549e-06, Final residual = 1.72129e-07, No Iterations 1
ExecutionTime = 1.41 s  ExecutionStepTime = 0.05 s  ClockTime = 1 s

Time = 13

pseudoTime: iteration 152126
Pseudo Courant No: 3
Damped pseudo Courant No: Min: 3 Mean: 3 Max: 3
Pseudo deltaT: Min: 7.19144e-09 Mean: 2.93112e-06 Max: 8.80963e-05
Solving for (rho rhoU rhoE)
  GMRES iteration: 0   Residual: 2.05962e-05 (3.80253e-06 2.15407e-06 1.57256e-18) 2.10543e-05 
  GMRES iteration: 1   Residual: 5.04142e-08 (1.02035e-08 1.56956e-08 0) 4.70623e-08 
smoothSolver:  Solving for omega, Initial residual = 3.75769e-08, Final residual = 7.49352e-11, No Iterations 1
smoothSolver:  Solving for k, Initial residual = 4.95198e-06, Final residual = 1.72195e-07, No Iterations 1
ExecutionTime = 1.48 s  ExecutionStepTime = 0.07 s  ClockTime = 1 s

Time = 14

pseudoTime: iteration 152127
Pseudo Courant No: 3
Damped pseudo Courant No: Min: 3 Mean: 3 Max: 3
Pseudo deltaT: Min: 7.19144e-09 Mean: 2.93112e-06 Max: 8.80956e-05
Solving for (rho rhoU rhoE)
  GMRES iteration: 0   Residual: 2.06823e-05 (3.8096e-06 2.14789e-06 1.57256e-18) 2.11631e-05 
  GMRES iteration: 1   Residual: 5.07408e-08 (1.00631e-08 1.49155e-08 0) 4.65509e-08 
smoothSolver:  Solving for omega, Initial residual = 3.76887e-08, Final residual = 7.47096e-11, No Iterations 1
smoothSolver:  Solving for k, Initial residual = 4.9485e-06, Final residual = 1.72262e-07, No Iterations 1
ExecutionTime = 1.53 s  ExecutionStepTime = 0.05 s  ClockTime = 1 s

Time = 14

pseudoTime: iteration 152128
Pseudo Courant No: 3
Damped pseudo Courant No: Min: 3 Mean: 3 Max: 3
Pseudo deltaT: Min: 7.19144e-09 Mean: 2.93113e-06 Max: 8.80971e-05
Solving for (rho rhoU rhoE)
  GMRES iteration: 0   Residual: 2.07531e-05 (3.81742e-06 2.15048e-06 1.57257e-18) 2.12425e-05 
  GMRES iteration: 1   Residual: 4.98609e-08 (9.89819e-09 1.25696e-08 0) 4.34737e-08 
smoothSolver:  Solving for omega, Initial residual = 3.76263e-08, Final residual = 7.45066e-11, No Iterations 1
smoothSolver:  Solving for k, Initial residual = 4.94608e-06, Final residual = 1.72328e-07, No Iterations 1
ExecutionTime = 1.58 s  ExecutionStepTime = 0.05 s  ClockTime = 1 s

Time = 14

pseudoTime: iteration 152129
Pseudo Courant No: 3
Damped pseudo Courant No: Min: 3 Mean: 3 Max: 3
Pseudo deltaT: Min: 7.19145e-09 Mean: 2.93113e-06 Max: 8.81012e-05
Solving for (rho rhoU rhoE)
  GMRES iteration: 0   Residual: 2.07741e-05 (3.82073e-06 2.14782e-06 1.57257e-18) 2.12567e-05 
  GMRES iteration: 1   Residual: 5.1764e-08 (1.00953e-08 1.25094e-08 0) 4.49837e-08 
smoothSolver:  Solving for omega, Initial residual = 3.74685e-08, Final residual = 7.44083e-11, No Iterations 1
smoothSolver:  Solving for k, Initial residual = 4.9436e-06, Final residual = 1.72393e-07, No Iterations 1
ExecutionTime = 1.63 s  ExecutionStepTime = 0.05 s  ClockTime = 1 s

Time = 15

pseudoTime: iteration 152130
Pseudo Courant No: 3
Damped pseudo Courant No: Min: 3 Mean: 3 Max: 3
Pseudo deltaT: Min: 7.19145e-09 Mean: 2.93114e-06 Max: 8.80932e-05
Solving for (rho rhoU rhoE)
  GMRES iteration: 0   Residual: 2.07981e-05 (3.82145e-06 2.14711e-06 1.57258e-18) 2.12817e-05 
  GMRES iteration: 1   Residual: 5.01325e-08 (9.85219e-09 1.24526e-08 0) 4.36867e-08 
smoothSolver:  Solving for omega, Initial residual = 3.75379e-08, Final residual = 7.44078e-11, No Iterations 1
smoothSolver:  Solving for k, Initial residual = 4.94123e-06, Final residual = 1.72458e-07, No Iterations 1
ExecutionTime = 1.68 s  ExecutionStepTime = 0.05 s  ClockTime = 2 s

Time = 16

pseudoTime: iteration 152131
Pseudo Courant No: 3
Damped pseudo Courant No: Min: 3 Mean: 3 Max: 3
Pseudo deltaT: Min: 7.19145e-09 Mean: 2.93114e-06 Max: 8.8098e-05
Solving for (rho rhoU rhoE)
  GMRES iteration: 0   Residual: 2.08491e-05 (3.82537e-06 2.14318e-06 1.57258e-18) 2.13311e-05 
  GMRES iteration: 1   Residual: 5.09834e-08 (9.93627e-09 1.29812e-08 0) 4.48058e-08 
smoothSolver:  Solving for omega, Initial residual = 3.7593e-08, Final residual = 7.45167e-11, No Iterations 1
smoothSolver:  Solving for k, Initial residual = 4.93988e-06, Final residual = 1.72522e-07, No Iterations 1
ExecutionTime = 1.73 s  ExecutionStepTime = 0.05 s  ClockTime = 2 s

Time = 16

pseudoTime: iteration 152132
Pseudo Courant No: 3
Damped pseudo Courant No: Min: 3 Mean: 3 Max: 3
Pseudo deltaT: Min: 7.19145e-09 Mean: 2.93114e-06 Max: 8.80931e-05
Solving for (rho rhoU rhoE)
  GMRES iteration: 0   Residual: 2.08596e-05 (3.82623e-06 2.14262e-06 1.57258e-18) 2.13376e-05 
  GMRES iteration: 1   Residual: 5.10436e-08 (9.9477e-09 1.22563e-08 0) 4.44064e-08 
smoothSolver:  Solving for omega, Initial residual = 3.75545e-08, Final residual = 7.46935e-11, No Iterations 1
smoothSolver:  Solving for k, Initial residual = 4.93728e-06, Final residual = 1.72584e-07, No Iterations 1
ExecutionTime = 1.78 s  ExecutionStepTime = 0.05 s  ClockTime = 2 s

Time = 16

pseudoTime: iteration 152133
Pseudo Courant No: 3
Damped pseudo Courant No: Min: 3 Mean: 3 Max: 3
Pseudo deltaT: Min: 7.19145e-09 Mean: 2.93115e-06 Max: 8.80959e-05
Solving for (rho rhoU rhoE)
  GMRES iteration: 0   Residual: 2.08748e-05 (3.82363e-06 2.14352e-06 1.57259e-18) 2.13479e-05 
  GMRES iteration: 1   Residual: 5.03965e-08 (9.78537e-09 1.17755e-08 0) 4.35635e-08 
smoothSolver:  Solving for omega, Initial residual = 3.77199e-08, Final residual = 7.48663e-11, No Iterations 1
smoothSolver:  Solving for k, Initial residual = 4.93641e-06, Final residual = 1.72649e-07, No Iterations 1
ExecutionTime = 1.83 s  ExecutionStepTime = 0.05 s  ClockTime = 2 s

Time = 17

pseudoTime: iteration 152134
Pseudo Courant No: 3
Damped pseudo Courant No: Min: 3 Mean: 3 Max: 3
Pseudo deltaT: Min: 7.19146e-09 Mean: 2.93115e-06 Max: 8.81008e-05
Solving for (rho rhoU rhoE)
  GMRES iteration: 0   Residual: 2.08946e-05 (3.82448e-06 2.14858e-06 1.57259e-18) 2.13683e-05 
  GMRES iteration: 1   Residual: 5.11284e-08 (9.86692e-09 1.12735e-08 0) 4.40742e-08 
smoothSolver:  Solving for omega, Initial residual = 3.77379e-08, Final residual = 7.49764e-11, No Iterations 1
smoothSolver:  Solving for k, Initial residual = 4.93399e-06, Final residual = 1.72714e-07, No Iterations 1
ExecutionTime = 1.88 s  ExecutionStepTime = 0.05 s  ClockTime = 2 s

Time = 18

pseudoTime: iteration 152135
Pseudo Courant No: 3
Damped pseudo Courant No: Min: 3 Mean: 3 Max: 3
Pseudo deltaT: Min: 7.19146e-09 Mean: 2.93115e-06 Max: 8.80968e-05
Solving for (rho rhoU rhoE)
  GMRES iteration: 0   Residual: 2.08753e-05 (3.81961e-06 2.15472e-06 1.5726e-18) 2.13233e-05 
  GMRES iteration: 1   Residual: 4.7693e-08 (9.33012e-09 1.27972e-08 0) 4.2368e-08 
smoothSolver:  Solving for omega, Initial residual = 3.76613e-08, Final residual = 7.50305e-11, No Iterations 1
smoothSolver:  Solving for k, Initial residual = 4.93373e-06, Final residual = 1.72782e-07, No Iterations 1
ExecutionTime = 1.93 s  ExecutionStepTime = 0.05 s  ClockTime = 2 s

Time = 18

pseudoTime: iteration 152136
Pseudo Courant No: 3
Damped pseudo Courant No: Min: 3 Mean: 3 Max: 3
Pseudo deltaT: Min: 7.19146e-09 Mean: 2.93116e-06 Max: 8.80972e-05
Solving for (rho rhoU rhoE)
  GMRES iteration: 0   Residual: 2.08693e-05 (3.81717e-06 2.16284e-06 1.5726e-18) 2.13197e-05 
  GMRES iteration: 1   Residual: 4.98779e-08 (9.93829e-09 1.61382e-08 0) 4.80465e-08 
smoothSolver:  Solving for omega, Initial residual = 3.77078e-08, Final residual = 7.50196e-11, No Iterations 1
smoothSolver:  Solving for k, Initial residual = 4.93215e-06, Final residual = 1.72848e-07, No Iterations 1
ExecutionTime = 1.98 s  ExecutionStepTime = 0.05 s  ClockTime = 2 s

Time = 18

pseudoTime: iteration 152137
Pseudo Courant No: 3
Damped pseudo Courant No: Min: 3 Mean: 3 Max: 3
Pseudo deltaT: Min: 7.19146e-09 Mean: 2.93116e-06 Max: 8.8096e-05
Solving for (rho rhoU rhoE)
  GMRES iteration: 0   Residual: 2.08701e-05 (3.81526e-06 2.17615e-06 1.57261e-18) 2.13042e-05 
  GMRES iteration: 1   Residual: 4.82785e-08 (9.43631e-09 1.37848e-08 0) 4.38397e-08 
smoothSolver:  Solving for omega, Initial residual = 3.7664e-08, Final residual = 7.49763e-11, No Iterations 1
smoothSolver:  Solving for k, Initial residual = 4.93205e-06, Final residual = 1.72918e-07, No Iterations 1
ExecutionTime = 2.03 s  ExecutionStepTime = 0.05 s  ClockTime = 2 s

Time = 19

pseudoTime: iteration 152138
Pseudo Courant No: 3
Damped pseudo Courant No: Min: 3 Mean: 3 Max: 3
Pseudo deltaT: Min: 7.19147e-09 Mean: 2.93116e-06 Max: 8.80921e-05
Solving for (rho rhoU rhoE)
  GMRES iteration: 0   Residual: 2.0839e-05 (3.80947e-06 2.18554e-06 1.57261e-18) 2.1262e-05 
  GMRES iteration: 1   Residual: 4.80095e-08 (9.31673e-09 1.23585e-08 0) 4.22454e-08 
smoothSolver:  Solving for omega, Initial residual = 3.75858e-08, Final residual = 7.4921e-11, No Iterations 1
smoothSolver:  Solving for k, Initial residual = 4.93045e-06, Final residual = 1.72987e-07, No Iterations 1
bounding k, min: -0.000145376 max: 8422.87 average: 1242.74
ExecutionTime = 2.09 s  ExecutionStepTime = 0.06 s  ClockTime = 2 s

Time = 20

pseudoTime: iteration 152139
Pseudo Courant No: 3
Damped pseudo Courant No: Min: 3 Mean: 3 Max: 3
Pseudo deltaT: Min: 7.19147e-09 Mean: 2.93117e-06 Max: 8.81011e-05
Solving for (rho rhoU rhoE)
  GMRES iteration: 0   Residual: 2.08685e-05 (3.80797e-06 2.1968e-06 1.57262e-18) 2.12969e-05 
  GMRES iteration: 1   Residual: 4.93934e-08 (9.55611e-09 1.1346e-08 0) 4.279e-08 
smoothSolver:  Solving for omega, Initial residual = 3.76649e-08, Final residual = 7.48212e-11, No Iterations 1
smoothSolver:  Solving for k, Initial residual = 5.46104e-06, Final residual = 1.7306e-07, No Iterations 1
ExecutionTime = 2.13 s  ExecutionStepTime = 0.04 s  ClockTime = 2 s

Time = 20

pseudoTime: iteration 152140
Pseudo Courant No: 3
Damped pseudo Courant No: Min: 3 Mean: 3 Max: 3
Pseudo deltaT: Min: 7.19147e-09 Mean: 2.93117e-06 Max: 8.80979e-05
Solving for (rho rhoU rhoE)
  GMRES iteration: 0   Residual: 2.0795e-05 (3.79796e-06 2.21053e-06 1.57262e-18) 2.12121e-05 
  GMRES iteration: 1   Residual: 4.77056e-08 (9.26279e-09 1.34572e-08 0) 4.3251e-08 
smoothSolver:  Solving for omega, Initial residual = 3.75353e-08, Final residual = 7.47059e-11, No Iterations 1
smoothSolver:  Solving for k, Initial residual = 5.32109e-06, Final residual = 1.73129e-07, No Iterations 1
ExecutionTime = 2.19 s  ExecutionStepTime = 0.06 s  ClockTime = 2 s

Time = 20

pseudoTime: iteration 152141
Pseudo Courant No: 3
Damped pseudo Courant No: Min: 3 Mean: 3 Max: 3
Pseudo deltaT: Min: 7.19148e-09 Mean: 2.93118e-06 Max: 8.80981e-05
Solving for (rho rhoU rhoE)
  GMRES iteration: 0   Residual: 2.07687e-05 (3.79133e-06 2.22298e-06 1.57263e-18) 2.11539e-05 
  GMRES iteration: 1   Residual: 4.62336e-08 (8.95822e-09 1.22988e-08 0) 4.10888e-08 
smoothSolver:  Solving for omega, Initial residual = 3.74463e-08, Final residual = 7.46538e-11, No Iterations 1
smoothSolver:  Solving for k, Initial residual = 5.21947e-06, Final residual = 1.73198e-07, No Iterations 1
ExecutionTime = 2.25 s  ExecutionStepTime = 0.06 s  ClockTime = 2 s

Time = 21

pseudoTime: iteration 152142
Pseudo Courant No: 3
Damped pseudo Courant No: Min: 3 Mean: 3 Max: 3
Pseudo deltaT: Min: 7.19148e-09 Mean: 2.93118e-06 Max: 8.80996e-05
Solving for (rho rhoU rhoE)
  GMRES iteration: 0   Residual: 2.07579e-05 (3.78515e-06 2.23551e-06 1.57263e-18) 2.11395e-05 
  GMRES iteration: 1   Residual: 4.70705e-08 (9.33693e-09 1.48939e-08 0) 4.46904e-08 
smoothSolver:  Solving for omega, Initial residual = 3.74876e-08, Final residual = 7.4678e-11, No Iterations 1
smoothSolver:  Solving for k, Initial residual = 5.14069e-06, Final residual = 1.73264e-07, No Iterations 1
ExecutionTime = 2.3 s  ExecutionStepTime = 0.05 s  ClockTime = 2 s

Time = 22

pseudoTime: iteration 152143
Pseudo Courant No: 3
Damped pseudo Courant No: Min: 3 Mean: 3 Max: 3
Pseudo deltaT: Min: 7.19148e-09 Mean: 2.93118e-06 Max: 8.80998e-05
Solving for (rho rhoU rhoE)
  GMRES iteration: 0   Residual: 2.0729e-05 (3.77952e-06 2.24993e-06 1.57264e-18) 2.10961e-05 
  GMRES iteration: 1   Residual: 4.78068e-08 (9.17364e-09 1.20439e-08 0) 4.19706e-08 
smoothSolver:  Solving for omega, Initial residual = 3.76101e-08, Final residual = 7.47442e-11, No Iterations 1
smoothSolver:  Solving for k, Initial residual = 5.08118e-06, Final residual = 1.7333e-07, No Iterations 1
ExecutionTime = 2.35 s  ExecutionStepTime = 0.05 s  ClockTime = 2 s

Time = 22

pseudoTime: iteration 152144
Pseudo Courant No: 3
Damped pseudo Courant No: Min: 3 Mean: 3 Max: 3
Pseudo deltaT: Min: 7.19148e-09 Mean: 2.93119e-06 Max: 8.80949e-05
Solving for (rho rhoU rhoE)
  GMRES iteration: 0   Residual: 2.0648e-05 (3.77082e-06 2.26065e-06 1.57264e-18) 2.09912e-05 
  GMRES iteration: 1   Residual: 4.67749e-08 (8.92347e-09 1.16979e-08 0) 4.09967e-08 
smoothSolver:  Solving for omega, Initial residual = 3.75457e-08, Final residual = 7.48477e-11, No Iterations 1
smoothSolver:  Solving for k, Initial residual = 5.06327e-06, Final residual = 1.73396e-07, No Iterations 1
ExecutionTime = 2.4 s  ExecutionStepTime = 0.05 s  ClockTime = 2 s

Time = 22

pseudoTime: iteration 152145
Pseudo Courant No: 3
Damped pseudo Courant No: Min: 3 Mean: 3 Max: 3
Pseudo deltaT: Min: 7.19149e-09 Mean: 2.93119e-06 Max: 8.81006e-05
Solving for (rho rhoU rhoE)
  GMRES iteration: 0   Residual: 2.06591e-05 (3.76712e-06 2.26442e-06 1.57265e-18) 2.1001e-05 
  GMRES iteration: 1   Residual: 4.69426e-08 (8.99176e-09 1.31032e-08 0) 4.26274e-08 
smoothSolver:  Solving for omega, Initial residual = 3.75148e-08, Final residual = 7.49304e-11, No Iterations 1
smoothSolver:  Solving for k, Initial residual = 5.04491e-06, Final residual = 1.73458e-07, No Iterations 1
ExecutionTime = 2.45 s  ExecutionStepTime = 0.05 s  ClockTime = 2 s

Time = 23

pseudoTime: iteration 152146
Pseudo Courant No: 3
Damped pseudo Courant No: Min: 3 Mean: 3 Max: 3
Pseudo deltaT: Min: 7.19149e-09 Mean: 2.93119e-06 Max: 8.80965e-05
Solving for (rho rhoU rhoE)
  GMRES iteration: 0   Residual: 2.06338e-05 (3.75958e-06 2.27628e-06 1.57265e-18) 2.09754e-05 
  GMRES iteration: 1   Residual: 4.61869e-08 (8.81098e-09 1.22715e-08 0) 4.12363e-08 
smoothSolver:  Solving for omega, Initial residual = 3.75058e-08, Final residual = 7.49897e-11, No Iterations 1
smoothSolver:  Solving for k, Initial residual = 5.02724e-06, Final residual = 1.7352e-07, No Iterations 1
ExecutionTime = 2.51 s  ExecutionStepTime = 0.06 s  ClockTime = 2 s

Time = 24

pseudoTime: iteration 152147
Pseudo Courant No: 3
Damped pseudo Courant No: Min: 3 Mean: 3 Max: 3
Pseudo deltaT: Min: 7.19149e-09 Mean: 2.9312e-06 Max: 8.80954e-05
Solving for (rho rhoU rhoE)
  GMRES iteration: 0   Residual: 2.05701e-05 (3.75524e-06 2.2856e-06 1.57266e-18) 2.08857e-05 
  GMRES iteration: 1   Residual: 4.76021e-08 (9.08746e-09 1.14099e-08 0) 4.15042e-08 
smoothSolver:  Solving for omega, Initial residual = 3.75827e-08, Final residual = 7.50748e-11, No Iterations 1
smoothSolver:  Solving for k, Initial residual = 5.01688e-06, Final residual = 1.73577e-07, No Iterations 1
ExecutionTime = 2.56 s  ExecutionStepTime = 0.05 s  ClockTime = 2 s

Time = 24

pseudoTime: iteration 152148
Pseudo Courant No: 3
Damped pseudo Courant No: Min: 3 Mean: 3 Max: 3
Pseudo deltaT: Min: 7.1915e-09 Mean: 2.9312e-06 Max: 8.80984e-05
Solving for (rho rhoU rhoE)
  GMRES iteration: 0   Residual: 2.05633e-05 (3.74789e-06 2.28376e-06 1.57266e-18) 2.08877e-05 
  GMRES iteration: 1   Residual: 4.68093e-08 (9.06744e-09 1.2077e-08 0) 4.13041e-08 
smoothSolver:  Solving for omega, Initial residual = 3.77326e-08, Final residual = 7.525e-11, No Iterations 1
smoothSolver:  Solving for k, Initial residual = 5.00978e-06, Final residual = 1.73632e-07, No Iterations 1
ExecutionTime = 2.61 s  ExecutionStepTime = 0.05 s  ClockTime = 2 s

Time = 24

pseudoTime: iteration 152149
Pseudo Courant No: 3
Damped pseudo Courant No: Min: 3 Mean: 3 Max: 3
Pseudo deltaT: Min: 7.1915e-09 Mean: 2.93121e-06 Max: 8.81013e-05
Solving for (rho rhoU rhoE)
  GMRES iteration: 0   Residual: 2.05189e-05 (3.74417e-06 2.28964e-06 1.57267e-18) 2.0822e-05 
  GMRES iteration: 1   Residual: 4.71659e-08 (8.98172e-09 1.19521e-08 0) 4.16971e-08 
smoothSolver:  Solving for omega, Initial residual = 3.77935e-08, Final residual = 7.55245e-11, No Iterations 1
smoothSolver:  Solving for k, Initial residual = 4.99778e-06, Final residual = 1.73683e-07, No Iterations 1
ExecutionTime = 2.66 s  ExecutionStepTime = 0.05 s  ClockTime = 2 s

Time = 25

pseudoTime: iteration 152150
Pseudo Courant No: 3
Damped pseudo Courant No: Min: 3 Mean: 3 Max: 3
Pseudo deltaT: Min: 7.1915e-09 Mean: 2.93121e-06 Max: 8.8096e-05
Solving for (rho rhoU rhoE)
  GMRES iteration: 0   Residual: 2.04608e-05 (3.73407e-06 2.29009e-06 1.57267e-18) 2.07479e-05 
  GMRES iteration: 1   Residual: 4.50013e-08 (8.63392e-09 1.1993e-08 0) 3.99967e-08 
smoothSolver:  Solving for omega, Initial residual = 3.80973e-08, Final residual = 7.59055e-11, No Iterations 1
smoothSolver:  Solving for k, Initial residual = 4.99479e-06, Final residual = 1.73732e-07, No Iterations 1
ExecutionTime = 2.71 s  ExecutionStepTime = 0.05 s  ClockTime = 3 s

Time = 26

pseudoTime: iteration 152151
Pseudo Courant No: 3
Damped pseudo Courant No: Min: 3 Mean: 3 Max: 3
Pseudo deltaT: Min: 7.19151e-09 Mean: 2.93121e-06 Max: 8.80981e-05
Solving for (rho rhoU rhoE)
  GMRES iteration: 0   Residual: 2.04523e-05 (3.72841e-06 2.28284e-06 1.57268e-18) 2.07292e-05 
  GMRES iteration: 1   Residual: 4.58599e-08 (8.8124e-09 1.21061e-08 0) 4.07682e-08 
smoothSolver:  Solving for omega, Initial residual = 3.83731e-08, Final residual = 7.62786e-11, No Iterations 1
smoothSolver:  Solving for k, Initial residual = 4.98779e-06, Final residual = 1.73779e-07, No Iterations 1
ExecutionTime = 2.76 s  ExecutionStepTime = 0.05 s  ClockTime = 3 s

Time = 26

pseudoTime: iteration 152152
Pseudo Courant No: 3
Damped pseudo Courant No: Min: 3 Mean: 3 Max: 3
Pseudo deltaT: Min: 7.19151e-09 Mean: 2.93122e-06 Max: 8.80969e-05
Solving for (rho rhoU rhoE)
  GMRES iteration: 0   Residual: 2.04257e-05 (3.72341e-06 2.28434e-06 1.57268e-18) 2.06982e-05 
  GMRES iteration: 1   Residual: 4.6547e-08 (8.78567e-09 1.18212e-08 0) 4.12076e-08 
smoothSolver:  Solving for omega, Initial residual = 3.85351e-08, Final residual = 7.66614e-11, No Iterations 1
smoothSolver:  Solving for k, Initial residual = 4.98235e-06, Final residual = 1.73825e-07, No Iterations 1
ExecutionTime = 2.81 s  ExecutionStepTime = 0.05 s  ClockTime = 3 s

Time = 26

pseudoTime: iteration 152153
Pseudo Courant No: 3
Damped pseudo Courant No: Min: 3 Mean: 3 Max: 3
Pseudo deltaT: Min: 7.19151e-09 Mean: 2.93122e-06 Max: 8.80941e-05
Solving for (rho rhoU rhoE)
  GMRES iteration: 0   Residual: 2.03873e-05 (3.72225e-06 2.28228e-06 1.57269e-18) 2.06552e-05 
  GMRES iteration: 1   Residual: 4.79814e-08 (9.00062e-09 1.1108e-08 0) 4.15951e-08 
smoothSolver:  Solving for omega, Initial residual = 3.86279e-08, Final residual = 7.69679e-11, No Iterations 1
smoothSolver:  Solving for k, Initial residual = 4.9787e-06, Final residual = 1.73872e-07, No Iterations 1
ExecutionTime = 2.86 s  ExecutionStepTime = 0.05 s  ClockTime = 3 s

Time = 27

pseudoTime: iteration 152154
Pseudo Courant No: 3
Damped pseudo Courant No: Min: 3 Mean: 3 Max: 3
Pseudo deltaT: Min: 7.19152e-09 Mean: 2.93123e-06 Max: 8.80977e-05
Solving for (rho rhoU rhoE)
  GMRES iteration: 0   Residual: 2.03578e-05 (3.71652e-06 2.27951e-06 1.57269e-18) 2.06083e-05 
  GMRES iteration: 1   Residual: 4.65189e-08 (8.85499e-09 1.28386e-08 0) 4.20879e-08 
smoothSolver:  Solving for omega, Initial residual = 3.8831e-08, Final residual = 7.72338e-11, No Iterations 1
smoothSolver:  Solving for k, Initial residual = 4.97476e-06, Final residual = 1.73917e-07, No Iterations 1
ExecutionTime = 2.9 s  ExecutionStepTime = 0.04 s  ClockTime = 3 s

Time = 28

pseudoTime: iteration 152155
Pseudo Courant No: 3
Damped pseudo Courant No: Min: 3 Mean: 3 Max: 3
Pseudo deltaT: Min: 7.19152e-09 Mean: 2.93123e-06 Max: 8.80987e-05
Solving for (rho rhoU rhoE)
  GMRES iteration: 0   Residual: 2.03811e-05 (3.7176e-06 2.27026e-06 1.5727e-18) 2.06319e-05 
  GMRES iteration: 1   Residual: 4.66154e-08 (8.70196e-09 1.12269e-08 0) 4.0666e-08 
smoothSolver:  Solving for omega, Initial residual = 3.90302e-08, Final residual = 7.74667e-11, No Iterations 1
smoothSolver:  Solving for k, Initial residual = 4.97173e-06, Final residual = 1.73962e-07, No Iterations 1
ExecutionTime = 2.95 s  ExecutionStepTime = 0.05 s  ClockTime = 3 s

Time = 28

pseudoTime: iteration 152156
Pseudo Courant No: 3
Damped pseudo Courant No: Min: 3 Mean: 3 Max: 3
Pseudo deltaT: Min: 7.19152e-09 Mean: 2.93123e-06 Max: 8.81001e-05
Solving for (rho rhoU rhoE)
  GMRES iteration: 0   Residual: 2.03071e-05 (3.71226e-06 2.27197e-06 1.5727e-18) 2.05496e-05 
  GMRES iteration: 1   Residual: 4.86658e-08 (9.00003e-09 1.11632e-08 0) 4.23538e-08 
smoothSolver:  Solving for omega, Initial residual = 3.9225e-08, Final residual = 7.7684e-11, No Iterations 1
smoothSolver:  Solving for k, Initial residual = 4.96854e-06, Final residual = 1.74008e-07, No Iterations 1
ExecutionTime = 3 s  ExecutionStepTime = 0.05 s  ClockTime = 3 s

Time = 28

pseudoTime: iteration 152157
Pseudo Courant No: 3
Damped pseudo Courant No: Min: 3 Mean: 3 Max: 3
Pseudo deltaT: Min: 7.19153e-09 Mean: 2.93124e-06 Max: 8.80983e-05
Solving for (rho rhoU rhoE)
  GMRES iteration: 0   Residual: 2.0264e-05 (3.71001e-06 2.25927e-06 1.57271e-18) 2.04808e-05 
  GMRES iteration: 1   Residual: 4.66421e-08 (8.66017e-09 1.33374e-08 0) 4.34152e-08 
smoothSolver:  Solving for omega, Initial residual = 3.92813e-08, Final residual = 7.78126e-11, No Iterations 1
smoothSolver:  Solving for k, Initial residual = 4.96555e-06, Final residual = 1.74053e-07, No Iterations 1
ExecutionTime = 3.05 s  ExecutionStepTime = 0.05 s  ClockTime = 3 s

Time = 29

pseudoTime: iteration 152158
Pseudo Courant No: 3
Damped pseudo Courant No: Min: 3 Mean: 3 Max: 3
Pseudo deltaT: Min: 7.19153e-09 Mean: 2.93124e-06 Max: 8.80957e-05
Solving for (rho rhoU rhoE)
  GMRES iteration: 0   Residual: 2.0239e-05 (3.70623e-06 2.25303e-06 1.57271e-18) 2.04588e-05 
  GMRES iteration: 1   Residual: 4.66316e-08 (8.88392e-09 1.39795e-08 0) 4.37576e-08 
smoothSolver:  Solving for omega, Initial residual = 3.94215e-08, Final residual = 7.78735e-11, No Iterations 1
smoothSolver:  Solving for k, Initial residual = 4.96297e-06, Final residual = 1.74096e-07, No Iterations 1
ExecutionTime = 3.1 s  ExecutionStepTime = 0.05 s  ClockTime = 3 s

Time = 30

pseudoTime: iteration 152159
Pseudo Courant No: 3
Damped pseudo Courant No: Min: 3 Mean: 3 Max: 3
Pseudo deltaT: Min: 7.19154e-09 Mean: 2.93125e-06 Max: 8.80973e-05
Solving for (rho rhoU rhoE)
  GMRES iteration: 0   Residual: 2.01729e-05 (3.70469e-06 2.239e-06 1.57272e-18) 2.03802e-05 
  GMRES iteration: 1   Residual: 4.67599e-08 (8.86382e-09 1.39757e-08 0) 4.39345e-08 
smoothSolver:  Solving for omega, Initial residual = 3.94261e-08, Final residual = 7.7816e-11, No Iterations 1
smoothSolver:  Solving for k, Initial residual = 4.96092e-06, Final residual = 1.74135e-07, No Iterations 1
ExecutionTime = 3.14 s  ExecutionStepTime = 0.04 s  ClockTime = 3 s

Time = 30

pseudoTime: iteration 152160
Pseudo Courant No: 3
Damped pseudo Courant No: Min: 3 Mean: 3 Max: 3
Pseudo deltaT: Min: 7.19154e-09 Mean: 2.93125e-06 Max: 8.80967e-05
Solving for (rho rhoU rhoE)
  GMRES iteration: 0   Residual: 2.01405e-05 (3.70141e-06 2.2335e-06 1.57272e-18) 2.03329e-05 
  GMRES iteration: 1   Residual: 4.65137e-08 (8.76159e-09 1.28612e-08 0) 4.21902e-08 
smoothSolver:  Solving for omega, Initial residual = 3.94287e-08, Final residual = 7.77333e-11, No Iterations 1
smoothSolver:  Solving for k, Initial residual = 4.95815e-06, Final residual = 1.74172e-07, No Iterations 1
ExecutionTime = 3.2 s  ExecutionStepTime = 0.06 s  ClockTime = 3 s

Time = 30

pseudoTime: iteration 152161
Pseudo Courant No: 3
Damped pseudo Courant No: Min: 3 Mean: 3 Max: 3
Pseudo deltaT: Min: 7.19154e-09 Mean: 2.93125e-06 Max: 8.80995e-05
Solving for (rho rhoU rhoE)
  GMRES iteration: 0   Residual: 2.00943e-05 (3.70298e-06 2.2216e-06 1.57273e-18) 2.02695e-05 
  GMRES iteration: 1   Residual: 4.90311e-08 (8.93229e-09 9.65345e-09 0) 4.20414e-08 
smoothSolver:  Solving for omega, Initial residual = 3.93423e-08, Final residual = 7.75447e-11, No Iterations 1
smoothSolver:  Solving for k, Initial residual = 4.95694e-06, Final residual = 1.74205e-07, No Iterations 1
ExecutionTime = 3.25 s  ExecutionStepTime = 0.05 s  ClockTime = 3 s

Time = 31

pseudoTime: iteration 152162
Pseudo Courant No: 3
Damped pseudo Courant No: Min: 3 Mean: 3 Max: 3
Pseudo deltaT: Min: 7.19155e-09 Mean: 2.93126e-06 Max: 8.80944e-05
Solving for (rho rhoU rhoE)
  GMRES iteration: 0   Residual: 2.00171e-05 (3.69682e-06 2.21617e-06 1.57273e-18) 2.01683e-05 
  GMRES iteration: 1   Residual: 4.7797e-08 (8.73741e-09 1.18332e-08 0) 4.24447e-08 
smoothSolver:  Solving for omega, Initial residual = 3.92633e-08, Final residual = 7.7324e-11, No Iterations 1
smoothSolver:  Solving for k, Initial residual = 4.95416e-06, Final residual = 1.74237e-07, No Iterations 1
ExecutionTime = 3.29 s  ExecutionStepTime = 0.04 s  ClockTime = 3 s

Time = 32

pseudoTime: iteration 152163
Pseudo Courant No: 3
Damped pseudo Courant No: Min: 3 Mean: 3 Max: 3
Pseudo deltaT: Min: 7.19155e-09 Mean: 2.93126e-06 Max: 8.80954e-05
Solving for (rho rhoU rhoE)
  GMRES iteration: 0   Residual: 1.99508e-05 (3.69189e-06 2.19724e-06 1.57274e-18) 2.00899e-05 
  GMRES iteration: 1   Residual: 4.69254e-08 (8.69796e-09 1.12329e-08 0) 4.08851e-08 
smoothSolver:  Solving for omega, Initial residual = 3.92158e-08, Final residual = 7.70977e-11, No Iterations 1
smoothSolver:  Solving for k, Initial residual = 4.95351e-06, Final residual = 1.74268e-07, No Iterations 1
ExecutionTime = 3.34 s  ExecutionStepTime = 0.05 s  ClockTime = 3 s

Time = 32

pseudoTime: iteration 152164
Pseudo Courant No: 3
Damped pseudo Courant No: Min: 3 Mean: 3 Max: 3
Pseudo deltaT: Min: 7.19155e-09 Mean: 2.93127e-06 Max: 8.8098e-05
Solving for (rho rhoU rhoE)
  GMRES iteration: 0   Residual: 1.98747e-05 (3.6883e-06 2.19793e-06 1.57274e-18) 1.99887e-05 
  GMRES iteration: 1   Residual: 4.65478e-08 (8.78406e-09 1.2073e-08 0) 4.11378e-08 
smoothSolver:  Solving for omega, Initial residual = 3.91894e-08, Final residual = 7.69221e-11, No Iterations 1
smoothSolver:  Solving for k, Initial residual = 4.95085e-06, Final residual = 1.74295e-07, No Iterations 1
ExecutionTime = 3.4 s  ExecutionStepTime = 0.06 s  ClockTime = 3 s

Time = 32

pseudoTime: iteration 152165
Pseudo Courant No: 3
Damped pseudo Courant No: Min: 3 Mean: 3 Max: 3
Pseudo deltaT: Min: 7.19156e-09 Mean: 2.93127e-06 Max: 8.81006e-05
Solving for (rho rhoU rhoE)
  GMRES iteration: 0   Residual: 1.98056e-05 (3.69014e-06 2.18711e-06 1.57275e-18) 1.98942e-05 
  GMRES iteration: 1   Residual: 4.78388e-08 (8.59606e-09 9.15386e-09 0) 4.13529e-08 
smoothSolver:  Solving for omega, Initial residual = 3.90247e-08, Final residual = 7.66858e-11, No Iterations 1
smoothSolver:  Solving for k, Initial residual = 4.95044e-06, Final residual = 1.74312e-07, No Iterations 1
ExecutionTime = 3.44 s  ExecutionStepTime = 0.04 s  ClockTime = 3 s

Time = 33

pseudoTime: iteration 152166
Pseudo Courant No: 3
Damped pseudo Courant No: Min: 3 Mean: 3 Max: 3
Pseudo deltaT: Min: 7.19156e-09 Mean: 2.93127e-06 Max: 8.80944e-05
Solving for (rho rhoU rhoE)
  GMRES iteration: 0   Residual: 1.97102e-05 (3.68283e-06 2.19067e-06 1.57275e-18) 1.97813e-05 
  GMRES iteration: 1   Residual: 4.73079e-08 (8.69078e-09 1.11644e-08 0) 4.11909e-08 
smoothSolver:  Solving for omega, Initial residual = 3.8906e-08, Final residual = 7.65054e-11, No Iterations 1
smoothSolver:  Solving for k, Initial residual = 4.94828e-06, Final residual = 1.74331e-07, No Iterations 1
ExecutionTime = 3.49 s  ExecutionStepTime = 0.05 s  ClockTime = 3 s

Time = 34

pseudoTime: iteration 152167
Pseudo Courant No: 3
Damped pseudo Courant No: Min: 3 Mean: 3 Max: 3
Pseudo deltaT: Min: 7.19156e-09 Mean: 2.93128e-06 Max: 8.80987e-05
Solving for (rho rhoU rhoE)
  GMRES iteration: 0   Residual: 1.96225e-05 (3.67814e-06 2.18313e-06 1.57276e-18) 1.96733e-05 
  GMRES iteration: 1   Residual: 4.62448e-08 (8.6626e-09 1.17146e-08 0) 4.06766e-08 
smoothSolver:  Solving for omega, Initial residual = 3.88029e-08, Final residual = 7.63148e-11, No Iterations 1
smoothSolver:  Solving for k, Initial residual = 4.94774e-06, Final residual = 1.74349e-07, No Iterations 1
ExecutionTime = 3.54 s  ExecutionStepTime = 0.05 s  ClockTime = 3 s

Time = 34

pseudoTime: iteration 152168
Pseudo Courant No: 3
Damped pseudo Courant No: Min: 3 Mean: 3 Max: 3
Pseudo deltaT: Min: 7.19157e-09 Mean: 2.93128e-06 Max: 8.80967e-05
Solving for (rho rhoU rhoE)
  GMRES iteration: 0   Residual: 1.94972e-05 (3.67222e-06 2.18582e-06 1.57276e-18) 1.95108e-05 
  GMRES iteration: 1   Residual: 4.6275e-08 (8.65003e-09 1.27131e-08 0) 4.18825e-08 
smoothSolver:  Solving for omega, Initial residual = 3.86903e-08, Final residual = 7.60975e-11, No Iterations 1
smoothSolver:  Solving for k, Initial residual = 4.94631e-06, Final residual = 1.74364e-07, No Iterations 1
bounding k, min: -0.000145618 max: 8424.92 average: 1243.24
ExecutionTime = 3.59 s  ExecutionStepTime = 0.05 s  ClockTime = 3 s

Time = 34

pseudoTime: iteration 152169
Pseudo Courant No: 3
Damped pseudo Courant No: Min: 3 Mean: 3 Max: 3
Pseudo deltaT: Min: 7.19157e-09 Mean: 2.93129e-06 Max: 8.80934e-05
Solving for (rho rhoU rhoE)
  GMRES iteration: 0   Residual: 1.9395e-05 (3.66679e-06 2.17697e-06 1.57277e-18) 1.93813e-05 
  GMRES iteration: 1   Residual: 4.6815e-08 (9.00195e-09 1.44451e-08 0) 4.39044e-08 
smoothSolver:  Solving for omega, Initial residual = 3.87123e-08, Final residual = 7.58761e-11, No Iterations 1
smoothSolver:  Solving for k, Initial residual = 5.4764e-06, Final residual = 1.7438e-07, No Iterations 1
ExecutionTime = 3.65 s  ExecutionStepTime = 0.06 s  ClockTime = 3 s

Time = 35

pseudoTime: iteration 152170
Pseudo Courant No: 3
Damped pseudo Courant No: Min: 3 Mean: 3 Max: 3
Pseudo deltaT: Min: 7.19157e-09 Mean: 2.93129e-06 Max: 8.80994e-05
Solving for (rho rhoU rhoE)
  GMRES iteration: 0   Residual: 1.9322e-05 (3.65972e-06 2.18378e-06 1.57277e-18) 1.9304e-05 
  GMRES iteration: 1   Residual: 4.61702e-08 (8.73869e-09 1.26466e-08 0) 4.15251e-08 
smoothSolver:  Solving for omega, Initial residual = 3.86151e-08, Final residual = 7.56736e-11, No Iterations 1
smoothSolver:  Solving for k, Initial residual = 5.33636e-06, Final residual = 1.74388e-07, No Iterations 1
ExecutionTime = 3.69 s  ExecutionStepTime = 0.04 s  ClockTime = 4 s

Time = 36

pseudoTime: iteration 152171
Pseudo Courant No: 3
Damped pseudo Courant No: Min: 3 Mean: 3 Max: 3
Pseudo deltaT: Min: 7.19158e-09 Mean: 2.93129e-06 Max: 8.81039e-05
Solving for (rho rhoU rhoE)
  GMRES iteration: 0   Residual: 1.91954e-05 (3.65229e-06 2.18847e-06 1.57278e-18) 1.91406e-05 
  GMRES iteration: 1   Residual: 4.74707e-08 (8.91433e-09 1.10621e-08 0) 4.105e-08 
smoothSolver:  Solving for omega, Initial residual = 3.84526e-08, Final residual = 7.53914e-11, No Iterations 1
smoothSolver:  Solving for k, Initial residual = 5.23409e-06, Final residual = 1.74395e-07, No Iterations 1
ExecutionTime = 3.74 s  ExecutionStepTime = 0.05 s  ClockTime = 4 s

Time = 36

pseudoTime: iteration 152172
Pseudo Courant No: 3
Damped pseudo Courant No: Min: 3 Mean: 3 Max: 3
Pseudo deltaT: Min: 7.19158e-09 Mean: 2.9313e-06 Max: 8.80963e-05
Solving for (rho rhoU rhoE)
  GMRES iteration: 0   Residual: 1.90447e-05 (3.6392e-06 2.18882e-06 1.57278e-18) 1.89599e-05 
  GMRES iteration: 1   Residual: 4.53605e-08 (8.67475e-09 1.34889e-08 0) 4.20543e-08 
smoothSolver:  Solving for omega, Initial residual = 3.81038e-08, Final residual = 7.50574e-11, No Iterations 1
smoothSolver:  Solving for k, Initial residual = 5.15471e-06, Final residual = 1.74404e-07, No Iterations 1
ExecutionTime = 3.79 s  ExecutionStepTime = 0.05 s  ClockTime = 4 s

Time = 36

pseudoTime: iteration 152173
Pseudo Courant No: 3
Damped pseudo Courant No: Min: 3 Mean: 3 Max: 3
Pseudo deltaT: Min: 7.19159e-09 Mean: 2.9313e-06 Max: 8.80957e-05
Solving for (rho rhoU rhoE)
  GMRES iteration: 0   Residual: 1.89938e-05 (3.62905e-06 2.18459e-06 1.57279e-18) 1.88959e-05 
  GMRES iteration: 1   Residual: 4.54051e-08 (8.73637e-09 1.33393e-08 0) 4.16149e-08 
smoothSolver:  Solving for omega, Initial residual = 3.80137e-08, Final residual = 7.47568e-11, No Iterations 1
smoothSolver:  Solving for k, Initial residual = 5.09579e-06, Final residual = 1.74415e-07, No Iterations 1
ExecutionTime = 3.84 s  ExecutionStepTime = 0.05 s  ClockTime = 4 s

Time = 37

pseudoTime: iteration 152174
Pseudo Courant No: 3
Damped pseudo Courant No: Min: 3 Mean: 3 Max: 3
Pseudo deltaT: Min: 7.19159e-09 Mean: 2.9313e-06 Max: 8.80986e-05
Solving for (rho rhoU rhoE)
  GMRES iteration: 0   Residual: 1.8838e-05 (3.61976e-06 2.20018e-06 1.57279e-18) 1.87069e-05 
  GMRES iteration: 1   Residual: 4.74088e-08 (9.0968e-09 1.45325e-08 0) 4.4379e-08 
smoothSolver:  Solving for omega, Initial residual = 3.80151e-08, Final residual = 7.46694e-11, No Iterations 1
smoothSolver:  Solving for k, Initial residual = 5.07698e-06, Final residual = 1.74426e-07, No Iterations 1
ExecutionTime = 3.89 s  ExecutionStepTime = 0.05 s  ClockTime = 4 s

Time = 38

pseudoTime: iteration 152175
Pseudo Courant No: 3
Damped pseudo Courant No: Min: 3 Mean: 3 Max: 3
Pseudo deltaT: Min: 7.19159e-09 Mean: 2.93131e-06 Max: 8.80983e-05
Solving for (rho rhoU rhoE)
  GMRES iteration: 0   Residual: 1.87207e-05 (3.61278e-06 2.18642e-06 1.5728e-18) 1.85676e-05 
  GMRES iteration: 1   Residual: 4.69441e-08 (9.00375e-09 1.1256e-08 0) 4.06878e-08 
smoothSolver:  Solving for omega, Initial residual = 3.80192e-08, Final residual = 7.47891e-11, No Iterations 1
smoothSolver:  Solving for k, Initial residual = 5.05959e-06, Final residual = 1.74441e-07, No Iterations 1
ExecutionTime = 3.93 s  ExecutionStepTime = 0.04 s  ClockTime = 4 s

Time = 38

pseudoTime: iteration 152176
Pseudo Courant No: 3
Damped pseudo Courant No: Min: 3 Mean: 3 Max: 3
Pseudo deltaT: Min: 7.1916e-09 Mean: 2.93131e-06 Max: 8.80926e-05
Solving for (rho rhoU rhoE)
  GMRES iteration: 0   Residual: 1.85916e-05 (3.5961e-06 2.17793e-06 1.57281e-18) 1.84067e-05 
  GMRES iteration: 1   Residual: 4.56783e-08 (8.70517e-09 1.21149e-08 0) 4.07494e-08 
smoothSolver:  Solving for omega, Initial residual = 3.78648e-08, Final residual = 7.48105e-11, No Iterations 1
smoothSolver:  Solving for k, Initial residual = 5.03989e-06, Final residual = 1.74458e-07, No Iterations 1
ExecutionTime = 3.98 s  ExecutionStepTime = 0.05 s  ClockTime = 4 s

Time = 38

pseudoTime: iteration 152177
Pseudo Courant No: 3
Damped pseudo Courant No: Min: 3 Mean: 3 Max: 3
Pseudo deltaT: Min: 7.1916e-09 Mean: 2.93132e-06 Max: 8.80987e-05
Solving for (rho rhoU rhoE)
  GMRES iteration: 0   Residual: 1.85263e-05 (3.58358e-06 2.16378e-06 1.57281e-18) 1.83316e-05 
  GMRES iteration: 1   Residual: 4.53341e-08 (8.9232e-09 1.30995e-08 0) 4.10402e-08 
smoothSolver:  Solving for omega, Initial residual = 3.78086e-08, Final residual = 7.48478e-11, No Iterations 1
smoothSolver:  Solving for k, Initial residual = 5.03133e-06, Final residual = 1.74475e-07, No Iterations 1
ExecutionTime = 4.04 s  ExecutionStepTime = 0.06 s  ClockTime = 4 s

Time = 39

pseudoTime: iteration 152178
Pseudo Courant No: 3
Damped pseudo Courant No: Min: 3 Mean: 3 Max: 3
Pseudo deltaT: Min: 7.1916e-09 Mean: 2.93132e-06 Max: 8.81006e-05
Solving for (rho rhoU rhoE)
  GMRES iteration: 0   Residual: 1.84097e-05 (3.57874e-06 2.15712e-06 1.57282e-18) 1.81983e-05 
  GMRES iteration: 1   Residual: 4.76031e-08 (9.11041e-09 1.00919e-08 0) 4.07221e-08 
smoothSolver:  Solving for omega, Initial residual = 3.78086e-08, Final residual = 7.48973e-11, No Iterations 1
smoothSolver:  Solving for k, Initial residual = 5.02217e-06, Final residual = 1.74492e-07, No Iterations 1
ExecutionTime = 4.08 s  ExecutionStepTime = 0.04 s  ClockTime = 4 s

Time = 40

pseudoTime: iteration 152179
Pseudo Courant No: 3
Damped pseudo Courant No: Min: 3 Mean: 3 Max: 3
Pseudo deltaT: Min: 7.19161e-09 Mean: 2.93132e-06 Max: 8.80931e-05
Solving for (rho rhoU rhoE)
  GMRES iteration: 0   Residual: 1.82917e-05 (3.56253e-06 2.13944e-06 1.57282e-18) 1.80539e-05 
  GMRES iteration: 1   Residual: 4.6476e-08 (8.92145e-09 1.11296e-08 0) 4.03939e-08 
smoothSolver:  Solving for omega, Initial residual = 3.75903e-08, Final residual = 7.4841e-11, No Iterations 1
smoothSolver:  Solving for k, Initial residual = 5.0114e-06, Final residual = 1.74513e-07, No Iterations 1
ExecutionTime = 4.13 s  ExecutionStepTime = 0.05 s  ClockTime = 4 s

Time = 40

pseudoTime: iteration 152180
Pseudo Courant No: 3
Damped pseudo Courant No: Min: 3 Mean: 3 Max: 3
Pseudo deltaT: Min: 7.19161e-09 Mean: 2.93133e-06 Max: 8.80988e-05
Solving for (rho rhoU rhoE)
  GMRES iteration: 0   Residual: 1.81985e-05 (3.54913e-06 2.12321e-06 1.57283e-18) 1.79347e-05 
  GMRES iteration: 1   Residual: 4.72954e-08 (9.32327e-09 1.46027e-08 0) 4.38188e-08 
smoothSolver:  Solving for omega, Initial residual = 3.74042e-08, Final residual = 7.46845e-11, No Iterations 1
smoothSolver:  Solving for k, Initial residual = 5.00661e-06, Final residual = 1.74531e-07, No Iterations 1
ExecutionTime = 4.17 s  ExecutionStepTime = 0.04 s  ClockTime = 4 s

Time = 40

pseudoTime: iteration 152181
Pseudo Courant No: 3
Damped pseudo Courant No: Min: 3 Mean: 3 Max: 3
Pseudo deltaT: Min: 7.19161e-09 Mean: 2.93133e-06 Max: 8.81044e-05
Solving for (rho rhoU rhoE)
  GMRES iteration: 0   Residual: 1.81316e-05 (3.53981e-06 2.09944e-06 1.57283e-18) 1.78604e-05 
  GMRES iteration: 1   Residual: 4.68459e-08 (9.13741e-09 1.19268e-08 0) 4.11647e-08 
smoothSolver:  Solving for omega, Initial residual = 3.74277e-08, Final residual = 7.45227e-11, No Iterations 1
smoothSolver:  Solving for k, Initial residual = 5.0002e-06, Final residual = 1.74549e-07, No Iterations 1
ExecutionTime = 4.23 s  ExecutionStepTime = 0.06 s  ClockTime = 4 s

Time = 41

pseudoTime: iteration 152182
Pseudo Courant No: 3
Damped pseudo Courant No: Min: 3 Mean: 3 Max: 3
Pseudo deltaT: Min: 7.19162e-09 Mean: 2.93134e-06 Max: 8.80983e-05
Solving for (rho rhoU rhoE)
  GMRES iteration: 0   Residual: 1.80792e-05 (3.5271e-06 2.08413e-06 1.57284e-18) 1.781e-05 
  GMRES iteration: 1   Residual: 4.52106e-08 (9.04469e-09 1.22344e-08 0) 3.99323e-08 
smoothSolver:  Solving for omega, Initial residual = 3.72514e-08, Final residual = 7.43819e-11, No Iterations 1
smoothSolver:  Solving for k, Initial residual = 4.99431e-06, Final residual = 1.74568e-07, No Iterations 1
ExecutionTime = 4.28 s  ExecutionStepTime = 0.05 s  ClockTime = 4 s

Time = 42

pseudoTime: iteration 152183
Pseudo Courant No: 3
Damped pseudo Courant No: Min: 3 Mean: 3 Max: 3
Pseudo deltaT: Min: 7.19162e-09 Mean: 2.93134e-06 Max: 8.80962e-05
Solving for (rho rhoU rhoE)
  GMRES iteration: 0   Residual: 1.80336e-05 (3.51882e-06 2.06382e-06 1.57284e-18) 1.77665e-05 
  GMRES iteration: 1   Residual: 4.59954e-08 (9.1652e-09 1.25732e-08 0) 4.09153e-08 
smoothSolver:  Solving for omega, Initial residual = 3.70316e-08, Final residual = 7.42274e-11, No Iterations 1
smoothSolver:  Solving for k, Initial residual = 4.9899e-06, Final residual = 1.74587e-07, No Iterations 1
ExecutionTime = 4.33 s  ExecutionStepTime = 0.05 s  ClockTime = 4 s

Time = 42

pseudoTime: iteration 152184
Pseudo Courant No: 3
Damped pseudo Courant No: Min: 3 Mean: 3 Max: 3
Pseudo deltaT: Min: 7.19162e-09 Mean: 2.93135e-06 Max: 8.80963e-05
Solving for (rho rhoU rhoE)
  GMRES iteration: 0   Residual: 1.79767e-05 (3.51115e-06 2.05315e-06 1.57285e-18) 1.77019e-05 
  GMRES iteration: 1   Residual: 4.74612e-08 (9.33239e-09 1.14528e-08 0) 4.12858e-08 
smoothSolver:  Solving for omega, Initial residual = 3.68568e-08, Final residual = 7.40433e-11, No Iterations 1
smoothSolver:  Solving for k, Initial residual = 4.98583e-06, Final residual = 1.74608e-07, No Iterations 1
ExecutionTime = 4.37 s  ExecutionStepTime = 0.04 s  ClockTime = 4 s

Time = 42

pseudoTime: iteration 152185
Pseudo Courant No: 3
Damped pseudo Courant No: Min: 3 Mean: 3 Max: 3
Pseudo deltaT: Min: 7.19162e-09 Mean: 2.93135e-06 Max: 8.80993e-05
Solving for (rho rhoU rhoE)
  GMRES iteration: 0   Residual: 1.79795e-05 (3.50398e-06 2.03672e-06 1.57285e-18) 1.77144e-05 
  GMRES iteration: 1   Residual: 4.62296e-08 (9.35466e-09 1.30537e-08 0) 4.13153e-08 
smoothSolver:  Solving for omega, Initial residual = 3.67705e-08, Final residual = 7.38381e-11, No Iterations 1
smoothSolver:  Solving for k, Initial residual = 4.98113e-06, Final residual = 1.7463e-07, No Iterations 1
ExecutionTime = 4.43 s  ExecutionStepTime = 0.06 s  ClockTime = 4 s

Time = 43

pseudoTime: iteration 152186
Pseudo Courant No: 3
Damped pseudo Courant No: Min: 3 Mean: 3 Max: 3
Pseudo deltaT: Min: 7.19163e-09 Mean: 2.93135e-06 Max: 8.80951e-05
Solving for (rho rhoU rhoE)
  GMRES iteration: 0   Residual: 1.79515e-05 (3.49741e-06 2.03698e-06 1.57285e-18) 1.76822e-05 
  GMRES iteration: 1   Residual: 4.48026e-08 (9.0901e-09 1.30952e-08 0) 4.05019e-08 
smoothSolver:  Solving for omega, Initial residual = 3.6659e-08, Final residual = 7.36512e-11, No Iterations 1
smoothSolver:  Solving for k, Initial residual = 4.97888e-06, Final residual = 1.74654e-07, No Iterations 1
ExecutionTime = 4.47 s  ExecutionStepTime = 0.04 s  ClockTime = 4 s

Time = 44

pseudoTime: iteration 152187
Pseudo Courant No: 3
Damped pseudo Courant No: Min: 3 Mean: 3 Max: 3
Pseudo deltaT: Min: 7.19163e-09 Mean: 2.93136e-06 Max: 8.80985e-05
Solving for (rho rhoU rhoE)
  GMRES iteration: 0   Residual: 1.79858e-05 (3.49537e-06 2.03287e-06 1.57286e-18) 1.77335e-05 
  GMRES iteration: 1   Residual: 4.63276e-08 (9.67518e-09 1.50018e-08 0) 4.28193e-08 
smoothSolver:  Solving for omega, Initial residual = 3.65095e-08, Final residual = 7.34464e-11, No Iterations 1
smoothSolver:  Solving for k, Initial residual = 4.97409e-06, Final residual = 1.74677e-07, No Iterations 1
ExecutionTime = 4.52 s  ExecutionStepTime = 0.05 s  ClockTime = 4 s

Time = 44

pseudoTime: iteration 152188
Pseudo Courant No: 3
Damped pseudo Courant No: Min: 3 Mean: 3 Max: 3
Pseudo deltaT: Min: 7.19163e-09 Mean: 2.93136e-06 Max: 8.80956e-05
Solving for (rho rhoU rhoE)
  GMRES iteration: 0   Residual: 1.8063e-05 (3.49907e-06 2.04368e-06 1.57286e-18) 1.78413e-05 
  GMRES iteration: 1   Residual: 4.59e-08 (9.74713e-09 1.49847e-08 0) 4.23043e-08 
smoothSolver:  Solving for omega, Initial residual = 3.64666e-08, Final residual = 7.32511e-11, No Iterations 1
smoothSolver:  Solving for k, Initial residual = 4.97309e-06, Final residual = 1.747e-07, No Iterations 1
ExecutionTime = 4.56 s  ExecutionStepTime = 0.04 s  ClockTime = 4 s

Time = 44

pseudoTime: iteration 152189
Pseudo Courant No: 3
Damped pseudo Courant No: Min: 3 Mean: 3 Max: 3
Pseudo deltaT: Min: 7.19163e-09 Mean: 2.93137e-06 Max: 8.80985e-05
Solving for (rho rhoU rhoE)
  GMRES iteration: 0   Residual: 1.80687e-05 (3.50494e-06 2.05806e-06 1.57287e-18) 1.78442e-05 
  GMRES iteration: 1   Residual: 4.87565e-08 (9.79736e-09 1.0628e-08 0) 4.18364e-08 
smoothSolver:  Solving for omega, Initial residual = 3.64384e-08, Final residual = 7.30832e-11, No Iterations 1
smoothSolver:  Solving for k, Initial residual = 4.96914e-06, Final residual = 1.74724e-07, No Iterations 1
ExecutionTime = 4.62 s  ExecutionStepTime = 0.06 s  ClockTime = 4 s

Time = 45

pseudoTime: iteration 152190
Pseudo Courant No: 3
Damped pseudo Courant No: Min: 3 Mean: 3 Max: 3
Pseudo deltaT: Min: 7.19164e-09 Mean: 2.93137e-06 Max: 8.80956e-05
Solving for (rho rhoU rhoE)
  GMRES iteration: 0   Residual: 1.81329e-05 (3.50431e-06 2.06919e-06 1.57287e-18) 1.79358e-05 
  GMRES iteration: 1   Residual: 4.79952e-08 (9.58555e-09 1.15923e-08 0) 4.16857e-08 
smoothSolver:  Solving for omega, Initial residual = 3.6312e-08, Final residual = 7.29554e-11, No Iterations 1
smoothSolver:  Solving for k, Initial residual = 4.96736e-06, Final residual = 1.74751e-07, No Iterations 1
ExecutionTime = 4.67 s  ExecutionStepTime = 0.05 s  ClockTime = 5 s

Time = 46

pseudoTime: iteration 152191
Pseudo Courant No: 3
Damped pseudo Courant No: Min: 3 Mean: 3 Max: 3
Pseudo deltaT: Min: 7.19164e-09 Mean: 2.93137e-06 Max: 8.80966e-05
Solving for (rho rhoU rhoE)
  GMRES iteration: 0   Residual: 1.82585e-05 (3.50742e-06 2.08103e-06 1.57288e-18) 1.81035e-05 
  GMRES iteration: 1   Residual: 4.85199e-08 (1.0124e-08 1.5768e-08 0) 4.50173e-08 
smoothSolver:  Solving for omega, Initial residual = 3.64115e-08, Final residual = 7.28771e-11, No Iterations 1
smoothSolver:  Solving for k, Initial residual = 4.9645e-06, Final residual = 1.74775e-07, No Iterations 1
ExecutionTime = 4.71 s  ExecutionStepTime = 0.04 s  ClockTime = 5 s

Time = 46

pseudoTime: iteration 152192
Pseudo Courant No: 3
Damped pseudo Courant No: Min: 3 Mean: 3 Max: 3
Pseudo deltaT: Min: 7.19164e-09 Mean: 2.93138e-06 Max: 8.80987e-05
Solving for (rho rhoU rhoE)
  GMRES iteration: 0   Residual: 1.82867e-05 (3.51723e-06 2.10339e-06 1.57288e-18) 1.81311e-05 
  GMRES iteration: 1   Residual: 4.78881e-08 (9.75523e-09 1.28761e-08 0) 4.22568e-08 
smoothSolver:  Solving for omega, Initial residual = 3.66187e-08, Final residual = 7.30365e-11, No Iterations 1
smoothSolver:  Solving for k, Initial residual = 4.96268e-06, Final residual = 1.74803e-07, No Iterations 1
ExecutionTime = 4.76 s  ExecutionStepTime = 0.05 s  ClockTime = 5 s

Time = 46

pseudoTime: iteration 152193
Pseudo Courant No: 3
Damped pseudo Courant No: Min: 3 Mean: 3 Max: 3
Pseudo deltaT: Min: 7.19164e-09 Mean: 2.93138e-06 Max: 8.80952e-05
Solving for (rho rhoU rhoE)
  GMRES iteration: 0   Residual: 1.83707e-05 (3.5204e-06 2.10895e-06 1.57289e-18) 1.82413e-05 
  GMRES iteration: 1   Residual: 4.83772e-08 (9.84823e-09 1.21141e-08 0) 4.21144e-08 
smoothSolver:  Solving for omega, Initial residual = 3.673e-08, Final residual = 7.33293e-11, No Iterations 1
smoothSolver:  Solving for k, Initial residual = 4.96153e-06, Final residual = 1.74832e-07, No Iterations 1
ExecutionTime = 4.81 s  ExecutionStepTime = 0.05 s  ClockTime = 5 s

Time = 47

pseudoTime: iteration 152194
Pseudo Courant No: 3
Damped pseudo Courant No: Min: 3 Mean: 3 Max: 3
Pseudo deltaT: Min: 7.19165e-09 Mean: 2.93139e-06 Max: 8.80967e-05
Solving for (rho rhoU rhoE)
  GMRES iteration: 0   Residual: 1.85142e-05 (3.53091e-06 2.11904e-06 1.57289e-18) 1.84242e-05 
  GMRES iteration: 1   Residual: 4.86902e-08 (1.09486e-08 1.82657e-08 0) 4.68659e-08 
smoothSolver:  Solving for omega, Initial residual = 3.6972e-08, Final residual = 7.36164e-11, No Iterations 1
smoothSolver:  Solving for k, Initial residual = 4.95875e-06, Final residual = 1.74861e-07, No Iterations 1
ExecutionTime = 4.86 s  ExecutionStepTime = 0.05 s  ClockTime = 5 s

Time = 48

pseudoTime: iteration 152195
Pseudo Courant No: 3
Damped pseudo Courant No: Min: 3 Mean: 3 Max: 3
Pseudo deltaT: Min: 7.19165e-09 Mean: 2.93139e-06 Max: 8.80984e-05
Solving for (rho rhoU rhoE)
  GMRES iteration: 0   Residual: 1.8616e-05 (3.54336e-06 2.13147e-06 1.57289e-18) 1.85506e-05 
  GMRES iteration: 1   Residual: 4.94624e-08 (1.00552e-08 1.20208e-08 0) 4.28879e-08 
smoothSolver:  Solving for omega, Initial residual = 3.7245e-08, Final residual = 7.39285e-11, No Iterations 1
smoothSolver:  Solving for k, Initial residual = 4.95787e-06, Final residual = 1.74893e-07, No Iterations 1
ExecutionTime = 4.9 s  ExecutionStepTime = 0.04 s  ClockTime = 5 s

Time = 48

pseudoTime: iteration 152196
Pseudo Courant No: 3
Damped pseudo Courant No: Min: 3 Mean: 3 Max: 3
Pseudo deltaT: Min: 7.19165e-09 Mean: 2.9314e-06 Max: 8.81004e-05
Solving for (rho rhoU rhoE)
  GMRES iteration: 0   Residual: 1.8689e-05 (3.55357e-06 2.13846e-06 1.5729e-18) 1.86368e-05 
  GMRES iteration: 1   Residual: 4.90473e-08 (1.01014e-08 1.49637e-08 0) 4.47833e-08 
smoothSolver:  Solving for omega, Initial residual = 3.72725e-08, Final residual = 7.42241e-11, No Iterations 1
smoothSolver:  Solving for k, Initial residual = 4.95531e-06, Final residual = 1.74927e-07, No Iterations 1
ExecutionTime = 4.96 s  ExecutionStepTime = 0.06 s  ClockTime = 5 s

Time = 48

pseudoTime: iteration 152197
Pseudo Courant No: 3
Damped pseudo Courant No: Min: 3 Mean: 3 Max: 3
Pseudo deltaT: Min: 7.19165e-09 Mean: 2.9314e-06 Max: 8.80949e-05
Solving for (rho rhoU rhoE)
  GMRES iteration: 0   Residual: 1.88396e-05 (3.56146e-06 2.13959e-06 1.5729e-18) 1.88194e-05 
  GMRES iteration: 1   Residual: 4.82558e-08 (1.0066e-08 1.40509e-08 0) 4.32058e-08 
smoothSolver:  Solving for omega, Initial residual = 3.76403e-08, Final residual = 7.46057e-11, No Iterations 1
smoothSolver:  Solving for k, Initial residual = 4.95468e-06, Final residual = 1.74963e-07, No Iterations 1
ExecutionTime = 5 s  ExecutionStepTime = 0.04 s  ClockTime = 5 s

Time = 49

pseudoTime: iteration 152198
Pseudo Courant No: 3
Damped pseudo Courant No: Min: 3 Mean: 3 Max: 3
Pseudo deltaT: Min: 7.19165e-09 Mean: 2.9314e-06 Max: 8.80959e-05
Solving for (rho rhoU rhoE)
  GMRES iteration: 0   Residual: 1.89184e-05 (3.57343e-06 2.14597e-06 1.57291e-18) 1.89029e-05 
  GMRES iteration: 1   Residual: 4.8361e-08 (1.02091e-08 1.44588e-08 0) 4.33616e-08 
smoothSolver:  Solving for omega, Initial residual = 3.79168e-08, Final residual = 7.50386e-11, No Iterations 1
smoothSolver:  Solving for k, Initial residual = 4.95228e-06, Final residual = 1.75002e-07, No Iterations 1
bounding k, min: -0.000145944 max: 8427.35 average: 1243.75
ExecutionTime = 5.05 s  ExecutionStepTime = 0.05 s  ClockTime = 5 s

Time = 50

pseudoTime: iteration 152199
Pseudo Courant No: 3
Damped pseudo Courant No: Min: 3 Mean: 3 Max: 3
Pseudo deltaT: Min: 7.19166e-09 Mean: 2.93141e-06 Max: 8.80981e-05
Solving for (rho rhoU rhoE)
  GMRES iteration: 0   Residual: 1.90246e-05 (3.58232e-06 2.14989e-06 1.57291e-18) 1.90369e-05 
  GMRES iteration: 1   Residual: 4.97607e-08 (1.03245e-08 1.2727e-08 0) 4.33391e-08 
smoothSolver:  Solving for omega, Initial residual = 3.81669e-08, Final residual = 7.53782e-11, No Iterations 1
smoothSolver:  Solving for k, Initial residual = 5.48229e-06, Final residual = 1.75047e-07, No Iterations 1
ExecutionTime = 5.09 s  ExecutionStepTime = 0.04 s  ClockTime = 5 s

Time = 50

pseudoTime: iteration 152200
Pseudo Courant No: 3
Damped pseudo Courant No: Min: 3 Mean: 3 Max: 3
Pseudo deltaT: Min: 7.19166e-09 Mean: 2.93141e-06 Max: 8.81009e-05
Solving for (rho rhoU rhoE)
  GMRES iteration: 0   Residual: 1.91541e-05 (3.59733e-06 2.15798e-06 1.57291e-18) 1.91875e-05 
  GMRES iteration: 1   Residual: 5.08877e-08 (1.03127e-08 1.15688e-08 0) 4.40101e-08 
smoothSolver:  Solving for omega, Initial residual = 3.82779e-08, Final residual = 7.5673e-11, No Iterations 1
smoothSolver:  Solving for k, Initial residual = 5.34093e-06, Final residual = 1.75091e-07, No Iterations 1
ExecutionTime = 5.15 s  ExecutionStepTime = 0.06 s  ClockTime = 5 s

Time = 50

pseudoTime: iteration 152201
Pseudo Courant No: 3
Damped pseudo Courant No: Min: 3 Mean: 3 Max: 3
Pseudo deltaT: Min: 7.19166e-09 Mean: 2.93141e-06 Max: 8.80941e-05
Solving for (rho rhoU rhoE)
  GMRES iteration: 0   Residual: 1.92006e-05 (3.60003e-06 2.16182e-06 1.57292e-18) 1.92293e-05 
  GMRES iteration: 1   Residual: 4.97712e-08 (1.0108e-08 1.21552e-08 0) 4.30492e-08 
smoothSolver:  Solving for omega, Initial residual = 3.83446e-08, Final residual = 7.58569e-11, No Iterations 1
smoothSolver:  Solving for k, Initial residual = 5.23954e-06, Final residual = 1.75142e-07, No Iterations 1
ExecutionTime = 5.2 s  ExecutionStepTime = 0.05 s  ClockTime = 5 s

Time = 51

pseudoTime: iteration 152202
Pseudo Courant No: 3
Damped pseudo Courant No: Min: 3 Mean: 3 Max: 3
Pseudo deltaT: Min: 7.19166e-09 Mean: 2.93142e-06 Max: 8.80997e-05
Solving for (rho rhoU rhoE)
  GMRES iteration: 0   Residual: 1.9272e-05 (3.60713e-06 2.1636e-06 1.57292e-18) 1.93131e-05 
  GMRES iteration: 1   Residual: 5.01545e-08 (1.02016e-08 1.32929e-08 0) 4.40832e-08 
smoothSolver:  Solving for omega, Initial residual = 3.82812e-08, Final residual = 7.59505e-11, No Iterations 1
smoothSolver:  Solving for k, Initial residual = 5.15876e-06, Final residual = 1.75197e-07, No Iterations 1
ExecutionTime = 5.24 s  ExecutionStepTime = 0.04 s  ClockTime = 5 s

Time = 52

pseudoTime: iteration 152203
Pseudo Courant No: 3
Damped pseudo Courant No: Min: 3 Mean: 3 Max: 3
Pseudo deltaT: Min: 7.19166e-09 Mean: 2.93142e-06 Max: 8.80946e-05
Solving for (rho rhoU rhoE)
  GMRES iteration: 0   Residual: 1.93967e-05 (3.61337e-06 2.17079e-06 1.57293e-18) 1.9461e-05 
  GMRES iteration: 1   Residual: 4.77917e-08 (1.0384e-08 1.5275e-08 0) 4.32448e-08 
smoothSolver:  Solving for omega, Initial residual = 3.83228e-08, Final residual = 7.5918e-11, No Iterations 1
smoothSolver:  Solving for k, Initial residual = 5.10015e-06, Final residual = 1.75257e-07, No Iterations 1
ExecutionTime = 5.29 s  ExecutionStepTime = 0.05 s  ClockTime = 5 s

Time = 52

pseudoTime: iteration 152204
Pseudo Courant No: 3
Damped pseudo Courant No: Min: 3 Mean: 3 Max: 3
Pseudo deltaT: Min: 7.19166e-09 Mean: 2.93143e-06 Max: 8.8095e-05
Solving for (rho rhoU rhoE)
  GMRES iteration: 0   Residual: 1.94089e-05 (3.62153e-06 2.18627e-06 1.57293e-18) 1.94643e-05 
  GMRES iteration: 1   Residual: 4.92792e-08 (1.01765e-08 1.34193e-08 0) 4.32502e-08 
smoothSolver:  Solving for omega, Initial residual = 3.8252e-08, Final residual = 7.58375e-11, No Iterations 1
smoothSolver:  Solving for k, Initial residual = 5.07977e-06, Final residual = 1.75319e-07, No Iterations 1
ExecutionTime = 5.34 s  ExecutionStepTime = 0.05 s  ClockTime = 5 s

Time = 52

pseudoTime: iteration 152205
Pseudo Courant No: 3
Damped pseudo Courant No: Min: 3 Mean: 3 Max: 3
Pseudo deltaT: Min: 7.19167e-09 Mean: 2.93143e-06 Max: 8.8099e-05
Solving for (rho rhoU rhoE)
  GMRES iteration: 0   Residual: 1.94473e-05 (3.62522e-06 2.19299e-06 1.57293e-18) 1.95005e-05 
  GMRES iteration: 1   Residual: 5.04494e-08 (1.02347e-08 1.13914e-08 0) 4.34418e-08 
smoothSolver:  Solving for omega, Initial residual = 3.79938e-08, Final residual = 7.56383e-11, No Iterations 1
smoothSolver:  Solving for k, Initial residual = 5.06313e-06, Final residual = 1.75386e-07, No Iterations 1
ExecutionTime = 5.39 s  ExecutionStepTime = 0.05 s  ClockTime = 5 s

Time = 53

pseudoTime: iteration 152206
Pseudo Courant No: 3
Damped pseudo Courant No: Min: 3 Mean: 3 Max: 3
Pseudo deltaT: Min: 7.19167e-09 Mean: 2.93143e-06 Max: 8.80964e-05
Solving for (rho rhoU rhoE)
  GMRES iteration: 0   Residual: 1.95141e-05 (3.62637e-06 2.20187e-06 1.57294e-18) 1.95803e-05 
  GMRES iteration: 1   Residual: 4.88702e-08 (9.9099e-09 1.24203e-08 0) 4.24721e-08 
smoothSolver:  Solving for omega, Initial residual = 3.77751e-08, Final residual = 7.53899e-11, No Iterations 1
smoothSolver:  Solving for k, Initial residual = 5.0425e-06, Final residual = 1.75455e-07, No Iterations 1
ExecutionTime = 5.44 s  ExecutionStepTime = 0.05 s  ClockTime = 5 s

Time = 54

pseudoTime: iteration 152207
Pseudo Courant No: 3
Damped pseudo Courant No: Min: 3 Mean: 3 Max: 3
Pseudo deltaT: Min: 7.19167e-09 Mean: 2.93144e-06 Max: 8.80973e-05
Solving for (rho rhoU rhoE)
  GMRES iteration: 0   Residual: 1.94905e-05 (3.6269e-06 2.21018e-06 1.57294e-18) 1.95425e-05 
  GMRES iteration: 1   Residual: 4.89824e-08 (1.05417e-08 1.73156e-08 0) 4.67407e-08 
smoothSolver:  Solving for omega, Initial residual = 3.74823e-08, Final residual = 7.50056e-11, No Iterations 1
smoothSolver:  Solving for k, Initial residual = 5.03494e-06, Final residual = 1.75526e-07, No Iterations 1
ExecutionTime = 5.48 s  ExecutionStepTime = 0.04 s  ClockTime = 5 s

Time = 54

pseudoTime: iteration 152208
Pseudo Courant No: 3
Damped pseudo Courant No: Min: 3 Mean: 3 Max: 3
Pseudo deltaT: Min: 7.19167e-09 Mean: 2.93144e-06 Max: 8.80963e-05
Solving for (rho rhoU rhoE)
  GMRES iteration: 0   Residual: 1.94905e-05 (3.62687e-06 2.22034e-06 1.57295e-18) 1.95381e-05 
  GMRES iteration: 1   Residual: 4.76836e-08 (1.00683e-08 1.4689e-08 0) 4.29308e-08 
smoothSolver:  Solving for omega, Initial residual = 3.71786e-08, Final residual = 7.45606e-11, No Iterations 1
smoothSolver:  Solving for k, Initial residual = 5.0253e-06, Final residual = 1.75599e-07, No Iterations 1
ExecutionTime = 5.53 s  ExecutionStepTime = 0.05 s  ClockTime = 5 s

Time = 54

pseudoTime: iteration 152209
Pseudo Courant No: 3
Damped pseudo Courant No: Min: 3 Mean: 3 Max: 3
Pseudo deltaT: Min: 7.19167e-09 Mean: 2.93145e-06 Max: 8.8092e-05
Solving for (rho rhoU rhoE)
  GMRES iteration: 0   Residual: 1.95171e-05 (3.62745e-06 2.22969e-06 1.57295e-18) 1.95636e-05 
  GMRES iteration: 1   Residual: 4.79555e-08 (9.89978e-09 1.27332e-08 0) 4.18277e-08 
smoothSolver:  Solving for omega, Initial residual = 3.68838e-08, Final residual = 7.41049e-11, No Iterations 1
smoothSolver:  Solving for k, Initial residual = 5.01542e-06, Final residual = 1.75674e-07, No Iterations 1
ExecutionTime = 5.58 s  ExecutionStepTime = 0.05 s  ClockTime = 5 s

Time = 55

pseudoTime: iteration 152210
Pseudo Courant No: 3
Damped pseudo Courant No: Min: 3 Mean: 3 Max: 3
Pseudo deltaT: Min: 7.19167e-09 Mean: 2.93145e-06 Max: 8.81011e-05
Solving for (rho rhoU rhoE)
  GMRES iteration: 0   Residual: 1.9466e-05 (3.62629e-06 2.23651e-06 1.57295e-18) 1.9494e-05 
  GMRES iteration: 1   Residual: 4.99015e-08 (1.01751e-08 1.19088e-08 0) 4.29849e-08 
smoothSolver:  Solving for omega, Initial residual = 3.64904e-08, Final residual = 7.36185e-11, No Iterations 1
smoothSolver:  Solving for k, Initial residual = 5.01049e-06, Final residual = 1.7575e-07, No Iterations 1
ExecutionTime = 5.62 s  ExecutionStepTime = 0.04 s  ClockTime = 5 s

Time = 56

pseudoTime: iteration 152211
Pseudo Courant No: 3
Damped pseudo Courant No: Min: 3 Mean: 3 Max: 3
Pseudo deltaT: Min: 7.19167e-09 Mean: 2.93145e-06 Max: 8.80979e-05
Solving for (rho rhoU rhoE)
  GMRES iteration: 0   Residual: 1.94526e-05 (3.62016e-06 2.2393e-06 1.57296e-18) 1.94758e-05 
  GMRES iteration: 1   Residual: 4.74266e-08 (9.98527e-09 1.45414e-08 0) 4.26736e-08 
smoothSolver:  Solving for omega, Initial residual = 3.60808e-08, Final residual = 7.31465e-11, No Iterations 1
smoothSolver:  Solving for k, Initial residual = 5.00497e-06, Final residual = 1.75831e-07, No Iterations 1
ExecutionTime = 5.68 s  ExecutionStepTime = 0.06 s  ClockTime = 6 s

Time = 56

pseudoTime: iteration 152212
Pseudo Courant No: 3
Damped pseudo Courant No: Min: 3 Mean: 3 Max: 3
Pseudo deltaT: Min: 7.19168e-09 Mean: 2.93146e-06 Max: 8.80976e-05
Solving for (rho rhoU rhoE)
  GMRES iteration: 0   Residual: 1.94518e-05 (3.61652e-06 2.24798e-06 1.57296e-18) 1.94719e-05 
  GMRES iteration: 1   Residual: 4.64247e-08 (9.5477e-09 1.31327e-08 0) 4.1102e-08 
smoothSolver:  Solving for omega, Initial residual = 3.606e-08, Final residual = 7.28566e-11, No Iterations 1
smoothSolver:  Solving for k, Initial residual = 4.99947e-06, Final residual = 1.75914e-07, No Iterations 1
ExecutionTime = 5.73 s  ExecutionStepTime = 0.05 s  ClockTime = 6 s

Time = 56

pseudoTime: iteration 152213
Pseudo Courant No: 3
Damped pseudo Courant No: Min: 3 Mean: 3 Max: 3
Pseudo deltaT: Min: 7.19168e-09 Mean: 2.93146e-06 Max: 8.80993e-05
Solving for (rho rhoU rhoE)
  GMRES iteration: 0   Residual: 1.93882e-05 (3.61139e-06 2.2515e-06 1.57297e-18) 1.93799e-05 
  GMRES iteration: 1   Residual: 4.68593e-08 (9.74576e-09 1.4891e-08 0) 4.28806e-08 
smoothSolver:  Solving for omega, Initial residual = 3.59357e-08, Final residual = 7.2709e-11, No Iterations 1
smoothSolver:  Solving for k, Initial residual = 4.99644e-06, Final residual = 1.76e-07, No Iterations 1
ExecutionTime = 5.77 s  ExecutionStepTime = 0.04 s  ClockTime = 6 s

Time = 57

pseudoTime: iteration 152214
Pseudo Courant No: 3
Damped pseudo Courant No: Min: 3 Mean: 3 Max: 3
Pseudo deltaT: Min: 7.19168e-09 Mean: 2.93147e-06 Max: 8.80972e-05
Solving for (rho rhoU rhoE)
  GMRES iteration: 0   Residual: 1.93625e-05 (3.60425e-06 2.25472e-06 1.57297e-18) 1.93473e-05 
[...]
smoothSolver:  Solving for k, Initial residual = 2.68534e-06, Final residual = 9.03662e-08, No Iterations 1
ExecutionTime = 230.17 s  ExecutionStepTime = 0.06 s  ClockTime = 232 s

Time = 1986

pseudoTime: iteration 156072
Pseudo Courant No: 3
Damped pseudo Courant No: Min: 3 Mean: 3 Max: 3
Pseudo deltaT: Min: 7.19129e-09 Mean: 2.9391e-06 Max: 8.80932e-05
Solving for (rho rhoU rhoE)
  GMRES iteration: 0   Residual: 7.96238e-06 (1.27802e-06 1.34688e-06 1.57783e-18) 7.86343e-06 
  GMRES iteration: 1   Residual: 2.01835e-08 (4.22738e-09 5.91393e-09 0) 1.74681e-08 
smoothSolver:  Solving for omega, Initial residual = 1.31984e-08, Final residual = 2.4845e-11, No Iterations 1
smoothSolver:  Solving for k, Initial residual = 2.60918e-06, Final residual = 9.0315e-08, No Iterations 1
ExecutionTime = 230.23 s  ExecutionStepTime = 0.06 s  ClockTime = 232 s

Time = 1986

pseudoTime: iteration 156073
Pseudo Courant No: 3
Damped pseudo Courant No: Min: 3 Mean: 3 Max: 3
Pseudo deltaT: Min: 7.19129e-09 Mean: 2.9391e-06 Max: 8.80938e-05
Solving for (rho rhoU rhoE)
  GMRES iteration: 0   Residual: 7.9525e-06 (1.27711e-06 1.34458e-06 1.57783e-18) 7.84522e-06 
  GMRES iteration: 1   Residual: 2.0124e-08 (4.19223e-09 5.54914e-09 0) 1.72659e-08 
smoothSolver:  Solving for omega, Initial residual = 1.3333e-08, Final residual = 2.48078e-11, No Iterations 1
smoothSolver:  Solving for k, Initial residual = 2.55173e-06, Final residual = 9.02691e-08, No Iterations 1
ExecutionTime = 230.28 s  ExecutionStepTime = 0.05 s  ClockTime = 232 s

Time = 1987

pseudoTime: iteration 156074
Pseudo Courant No: 3
Damped pseudo Courant No: Min: 3 Mean: 3 Max: 3
Pseudo deltaT: Min: 7.19129e-09 Mean: 2.9391e-06 Max: 8.80981e-05
Solving for (rho rhoU rhoE)
  GMRES iteration: 0   Residual: 7.9565e-06 (1.27791e-06 1.34681e-06 1.57783e-18) 7.84645e-06 
  GMRES iteration: 1   Residual: 1.9429e-08 (3.81097e-09 4.54312e-09 0) 1.65544e-08 
smoothSolver:  Solving for omega, Initial residual = 1.32514e-08, Final residual = 2.47231e-11, No Iterations 1
smoothSolver:  Solving for k, Initial residual = 2.53225e-06, Final residual = 9.02276e-08, No Iterations 1
ExecutionTime = 230.34 s  ExecutionStepTime = 0.06 s  ClockTime = 232 s

Time = 1988

pseudoTime: iteration 156075
Pseudo Courant No: 3
Damped pseudo Courant No: Min: 3 Mean: 3 Max: 3
Pseudo deltaT: Min: 7.19129e-09 Mean: 2.93911e-06 Max: 8.80909e-05
Solving for (rho rhoU rhoE)
  GMRES iteration: 0   Residual: 7.91673e-06 (1.27285e-06 1.35389e-06 1.57783e-18) 7.80437e-06 
  GMRES iteration: 1   Residual: 1.99992e-08 (4.00866e-09 4.74279e-09 0) 1.68501e-08 
smoothSolver:  Solving for omega, Initial residual = 1.30282e-08, Final residual = 2.46429e-11, No Iterations 1
smoothSolver:  Solving for k, Initial residual = 2.51407e-06, Final residual = 9.01906e-08, No Iterations 1
ExecutionTime = 230.4 s  ExecutionStepTime = 0.06 s  ClockTime = 232 s

Time = 1988

pseudoTime: iteration 156076
Pseudo Courant No: 3
Damped pseudo Courant No: Min: 3 Mean: 3 Max: 3
Pseudo deltaT: Min: 7.19129e-09 Mean: 2.93911e-06 Max: 8.80964e-05
Solving for (rho rhoU rhoE)
  GMRES iteration: 0   Residual: 7.94861e-06 (1.27411e-06 1.3577e-06 1.57783e-18) 7.83335e-06 
  GMRES iteration: 1   Residual: 1.96576e-08 (4.00416e-09 5.02716e-09 0) 1.67417e-08 
smoothSolver:  Solving for omega, Initial residual = 1.32292e-08, Final residual = 2.45956e-11, No Iterations 1
smoothSolver:  Solving for k, Initial residual = 2.49411e-06, Final residual = 9.01556e-08, No Iterations 1
ExecutionTime = 230.46 s  ExecutionStepTime = 0.06 s  ClockTime = 232 s

Time = 1988

pseudoTime: iteration 156077
Pseudo Courant No: 3
Damped pseudo Courant No: Min: 3 Mean: 3 Max: 3
Pseudo deltaT: Min: 7.19129e-09 Mean: 2.93911e-06 Max: 8.80983e-05
Solving for (rho rhoU rhoE)
  GMRES iteration: 0   Residual: 7.8827e-06 (1.27191e-06 1.3686e-06 1.57783e-18) 7.74931e-06 
  GMRES iteration: 1   Residual: 1.88742e-08 (4.34257e-09 6.50594e-09 0) 1.68196e-08 
smoothSolver:  Solving for omega, Initial residual = 1.32149e-08, Final residual = 2.45477e-11, No Iterations 1
smoothSolver:  Solving for k, Initial residual = 2.48446e-06, Final residual = 9.01222e-08, No Iterations 1
ExecutionTime = 230.51 s  ExecutionStepTime = 0.05 s  ClockTime = 232 s

Time = 1989

pseudoTime: iteration 156078
Pseudo Courant No: 3
Damped pseudo Courant No: Min: 3 Mean: 3 Max: 3
Pseudo deltaT: Min: 7.19129e-09 Mean: 2.93911e-06 Max: 8.80965e-05
Solving for (rho rhoU rhoE)
  GMRES iteration: 0   Residual: 7.82159e-06 (1.27442e-06 1.37377e-06 1.57782e-18) 7.66439e-06 
  GMRES iteration: 1   Residual: 1.84899e-08 (3.38778e-09 3.61027e-09 0) 1.66365e-08 
smoothSolver:  Solving for omega, Initial residual = 1.30304e-08, Final residual = 2.45269e-11, No Iterations 1
smoothSolver:  Solving for k, Initial residual = 2.47444e-06, Final residual = 9.00885e-08, No Iterations 1
ExecutionTime = 230.58 s  ExecutionStepTime = 0.07 s  ClockTime = 232 s

Time = 1990

pseudoTime: iteration 156079
Pseudo Courant No: 3
Damped pseudo Courant No: Min: 3 Mean: 3 Max: 3
Pseudo deltaT: Min: 7.19129e-09 Mean: 2.93911e-06 Max: 8.80971e-05
Solving for (rho rhoU rhoE)
  GMRES iteration: 0   Residual: 7.79395e-06 (1.2689e-06 1.37638e-06 1.57782e-18) 7.62446e-06 
  GMRES iteration: 1   Residual: 1.99939e-08 (4.02505e-09 4.74877e-09 0) 1.69479e-08 
smoothSolver:  Solving for omega, Initial residual = 1.3048e-08, Final residual = 2.44745e-11, No Iterations 1
smoothSolver:  Solving for k, Initial residual = 2.46299e-06, Final residual = 9.00591e-08, No Iterations 1
ExecutionTime = 230.63 s  ExecutionStepTime = 0.05 s  ClockTime = 232 s

Time = 1990

pseudoTime: iteration 156080
Pseudo Courant No: 3
Damped pseudo Courant No: Min: 3 Mean: 3 Max: 3
Pseudo deltaT: Min: 7.19129e-09 Mean: 2.93911e-06 Max: 8.80963e-05
Solving for (rho rhoU rhoE)
  GMRES iteration: 0   Residual: 7.68132e-06 (1.26334e-06 1.38864e-06 1.57782e-18) 7.46471e-06 
  GMRES iteration: 1   Residual: 1.90771e-08 (3.89106e-09 4.42822e-09 0) 1.61136e-08 
smoothSolver:  Solving for omega, Initial residual = 1.29331e-08, Final residual = 2.43854e-11, No Iterations 1
smoothSolver:  Solving for k, Initial residual = 2.45709e-06, Final residual = 9.00291e-08, No Iterations 1
ExecutionTime = 230.69 s  ExecutionStepTime = 0.06 s  ClockTime = 233 s

Time = 1990

pseudoTime: iteration 156081
Pseudo Courant No: 3
Damped pseudo Courant No: Min: 3 Mean: 3 Max: 3
Pseudo deltaT: Min: 7.1913e-09 Mean: 2.93912e-06 Max: 8.81e-05
Solving for (rho rhoU rhoE)
  GMRES iteration: 0   Residual: 7.66729e-06 (1.25699e-06 1.39001e-06 1.57782e-18) 7.4552e-06 
  GMRES iteration: 1   Residual: 1.90579e-08 (3.95223e-09 4.73386e-09 0) 1.62269e-08 
smoothSolver:  Solving for omega, Initial residual = 1.27976e-08, Final residual = 2.42291e-11, No Iterations 1
smoothSolver:  Solving for k, Initial residual = 2.45002e-06, Final residual = 9.00005e-08, No Iterations 1
ExecutionTime = 230.74 s  ExecutionStepTime = 0.05 s  ClockTime = 233 s

Time = 1991

pseudoTime: iteration 156082
Pseudo Courant No: 3
Damped pseudo Courant No: Min: 3 Mean: 3 Max: 3
Pseudo deltaT: Min: 7.1913e-09 Mean: 2.93912e-06 Max: 8.8096e-05
Solving for (rho rhoU rhoE)
  GMRES iteration: 0   Residual: 7.54208e-06 (1.25721e-06 1.40682e-06 1.57782e-18) 7.2834e-06 
  GMRES iteration: 1   Residual: 1.75196e-08 (3.43633e-09 3.82727e-09 0) 1.5474e-08 
smoothSolver:  Solving for omega, Initial residual = 1.28198e-08, Final residual = 2.40891e-11, No Iterations 1
smoothSolver:  Solving for k, Initial residual = 2.44252e-06, Final residual = 8.99731e-08, No Iterations 1
ExecutionTime = 230.81 s  ExecutionStepTime = 0.07 s  ClockTime = 233 s

Time = 1992

pseudoTime: iteration 156083
Pseudo Courant No: 3
Damped pseudo Courant No: Min: 3 Mean: 3 Max: 3
Pseudo deltaT: Min: 7.1913e-09 Mean: 2.93912e-06 Max: 8.80949e-05
Solving for (rho rhoU rhoE)
  GMRES iteration: 0   Residual: 7.45494e-06 (1.25016e-06 1.41587e-06 1.57782e-18) 7.179e-06 
  GMRES iteration: 1   Residual: 1.90894e-08 (4.0351e-09 4.62942e-09 0) 1.60946e-08 
smoothSolver:  Solving for omega, Initial residual = 1.25722e-08, Final residual = 2.39076e-11, No Iterations 1
smoothSolver:  Solving for k, Initial residual = 2.43846e-06, Final residual = 8.99499e-08, No Iterations 1
ExecutionTime = 230.86 s  ExecutionStepTime = 0.05 s  ClockTime = 233 s

Time = 1992

pseudoTime: iteration 156084
Pseudo Courant No: 3
Damped pseudo Courant No: Min: 3 Mean: 3 Max: 3
Pseudo deltaT: Min: 7.1913e-09 Mean: 2.93912e-06 Max: 8.80982e-05
Solving for (rho rhoU rhoE)
  GMRES iteration: 0   Residual: 7.38318e-06 (1.24822e-06 1.43071e-06 1.57782e-18) 7.08421e-06 
  GMRES iteration: 1   Residual: 1.88083e-08 (3.84661e-09 4.37535e-09 0) 1.61278e-08 
smoothSolver:  Solving for omega, Initial residual = 1.24424e-08, Final residual = 2.3676e-11, No Iterations 1
smoothSolver:  Solving for k, Initial residual = 2.43257e-06, Final residual = 8.99271e-08, No Iterations 1
ExecutionTime = 230.92 s  ExecutionStepTime = 0.06 s  ClockTime = 233 s

Time = 1992

pseudoTime: iteration 156085
Pseudo Courant No: 3
Damped pseudo Courant No: Min: 3 Mean: 3 Max: 3
Pseudo deltaT: Min: 7.1913e-09 Mean: 2.93912e-06 Max: 8.80917e-05
Solving for (rho rhoU rhoE)
  GMRES iteration: 0   Residual: 7.27382e-06 (1.24262e-06 1.43894e-06 1.57782e-18) 6.94592e-06 
  GMRES iteration: 1   Residual: 1.86561e-08 (4.02211e-09 4.55339e-09 0) 1.58646e-08 
smoothSolver:  Solving for omega, Initial residual = 1.25794e-08, Final residual = 2.34921e-11, No Iterations 1
smoothSolver:  Solving for k, Initial residual = 2.42865e-06, Final residual = 8.99084e-08, No Iterations 1
ExecutionTime = 230.97 s  ExecutionStepTime = 0.05 s  ClockTime = 233 s

Time = 1993

pseudoTime: iteration 156086
Pseudo Courant No: 3
Damped pseudo Courant No: Min: 3 Mean: 3 Max: 3
Pseudo deltaT: Min: 7.1913e-09 Mean: 2.93913e-06 Max: 8.80973e-05
Solving for (rho rhoU rhoE)
  GMRES iteration: 0   Residual: 7.1473e-06 (1.24041e-06 1.44417e-06 1.57782e-18) 6.7856e-06 
  GMRES iteration: 1   Residual: 1.83224e-08 (4.01134e-09 4.70016e-09 0) 1.56755e-08 
smoothSolver:  Solving for omega, Initial residual = 1.21676e-08, Final residual = 2.32809e-11, No Iterations 1
smoothSolver:  Solving for k, Initial residual = 2.42424e-06, Final residual = 8.98905e-08, No Iterations 1
ExecutionTime = 231.03 s  ExecutionStepTime = 0.06 s  ClockTime = 233 s

Time = 1994

pseudoTime: iteration 156087
Pseudo Courant No: 3
Damped pseudo Courant No: Min: 3 Mean: 3 Max: 3
Pseudo deltaT: Min: 7.19131e-09 Mean: 2.93913e-06 Max: 8.80986e-05
Solving for (rho rhoU rhoE)
  GMRES iteration: 0   Residual: 7.04999e-06 (1.24207e-06 1.44935e-06 1.57782e-18) 6.6653e-06 
  GMRES iteration: 1   Residual: 1.79433e-08 (3.80898e-09 4.13989e-09 0) 1.53638e-08 
smoothSolver:  Solving for omega, Initial residual = 1.21152e-08, Final residual = 2.30536e-11, No Iterations 1
smoothSolver:  Solving for k, Initial residual = 2.42003e-06, Final residual = 8.98736e-08, No Iterations 1
ExecutionTime = 231.1 s  ExecutionStepTime = 0.07 s  ClockTime = 233 s

Time = 1994

pseudoTime: iteration 156088
Pseudo Courant No: 3
Damped pseudo Courant No: Min: 3 Mean: 3 Max: 3
Pseudo deltaT: Min: 7.19131e-09 Mean: 2.93913e-06 Max: 8.80978e-05
Solving for (rho rhoU rhoE)
  GMRES iteration: 0   Residual: 6.9004e-06 (1.2412e-06 1.45177e-06 1.57782e-18) 6.46964e-06 
  GMRES iteration: 1   Residual: 1.75543e-08 (3.65432e-09 3.98468e-09 0) 1.52031e-08 
smoothSolver:  Solving for omega, Initial residual = 1.2146e-08, Final residual = 2.29035e-11, No Iterations 1
smoothSolver:  Solving for k, Initial residual = 2.41614e-06, Final residual = 8.98561e-08, No Iterations 1
ExecutionTime = 231.15 s  ExecutionStepTime = 0.05 s  ClockTime = 233 s

Time = 1994

pseudoTime: iteration 156089
Pseudo Courant No: 3
Damped pseudo Courant No: Min: 3 Mean: 3 Max: 3
Pseudo deltaT: Min: 7.19131e-09 Mean: 2.93913e-06 Max: 8.80973e-05
Solving for (rho rhoU rhoE)
  GMRES iteration: 0   Residual: 6.78918e-06 (1.24056e-06 1.44717e-06 1.57782e-18) 6.34103e-06 
  GMRES iteration: 1   Residual: 1.92088e-08 (4.13375e-09 4.42185e-09 0) 1.61474e-08 
smoothSolver:  Solving for omega, Initial residual = 1.18451e-08, Final residual = 2.27602e-11, No Iterations 1
smoothSolver:  Solving for k, Initial residual = 2.41299e-06, Final residual = 8.9838e-08, No Iterations 1
ExecutionTime = 231.21 s  ExecutionStepTime = 0.06 s  ClockTime = 233 s

Time = 1995

pseudoTime: iteration 156090
Pseudo Courant No: 3
Damped pseudo Courant No: Min: 3 Mean: 3 Max: 3
Pseudo deltaT: Min: 7.19131e-09 Mean: 2.93913e-06 Max: 8.80965e-05
Solving for (rho rhoU rhoE)
  GMRES iteration: 0   Residual: 6.69196e-06 (1.24035e-06 1.4433e-06 1.57782e-18) 6.22843e-06 
  GMRES iteration: 1   Residual: 1.83432e-08 (3.97888e-09 4.0794e-09 0) 1.54429e-08 
smoothSolver:  Solving for omega, Initial residual = 1.1785e-08, Final residual = 2.25848e-11, No Iterations 1
smoothSolver:  Solving for k, Initial residual = 2.40886e-06, Final residual = 8.9816e-08, No Iterations 1
ExecutionTime = 231.27 s  ExecutionStepTime = 0.06 s  ClockTime = 233 s

Time = 1996

pseudoTime: iteration 156091
Pseudo Courant No: 3
Damped pseudo Courant No: Min: 3 Mean: 3 Max: 3
Pseudo deltaT: Min: 7.19131e-09 Mean: 2.93914e-06 Max: 8.81e-05
Solving for (rho rhoU rhoE)
  GMRES iteration: 0   Residual: 6.61967e-06 (1.24508e-06 1.43745e-06 1.57782e-18) 6.14572e-06 
  GMRES iteration: 1   Residual: 1.83486e-08 (4.04328e-09 4.35288e-09 0) 1.55012e-08 
smoothSolver:  Solving for omega, Initial residual = 1.18553e-08, Final residual = 2.25076e-11, No Iterations 1
smoothSolver:  Solving for k, Initial residual = 2.40634e-06, Final residual = 8.97924e-08, No Iterations 1
ExecutionTime = 231.33 s  ExecutionStepTime = 0.06 s  ClockTime = 233 s

Time = 1996

pseudoTime: iteration 156092
Pseudo Courant No: 3
Damped pseudo Courant No: Min: 3 Mean: 3 Max: 3
Pseudo deltaT: Min: 7.19132e-09 Mean: 2.93914e-06 Max: 8.80961e-05
Solving for (rho rhoU rhoE)
  GMRES iteration: 0   Residual: 6.48772e-06 (1.25001e-06 1.42937e-06 1.57782e-18) 5.98041e-06 
  GMRES iteration: 1   Residual: 1.7786e-08 (4.1975e-09 5.4745e-09 0) 1.54353e-08 
smoothSolver:  Solving for omega, Initial residual = 1.15605e-08, Final residual = 2.24507e-11, No Iterations 1
smoothSolver:  Solving for k, Initial residual = 2.40225e-06, Final residual = 8.97663e-08, No Iterations 1
ExecutionTime = 231.38 s  ExecutionStepTime = 0.05 s  ClockTime = 233 s

Time = 1996

pseudoTime: iteration 156093
Pseudo Courant No: 3
Damped pseudo Courant No: Min: 3 Mean: 3 Max: 3
Pseudo deltaT: Min: 7.19132e-09 Mean: 2.93914e-06 Max: 8.80951e-05
Solving for (rho rhoU rhoE)
  GMRES iteration: 0   Residual: 6.39904e-06 (1.2501e-06 1.40231e-06 1.57782e-18) 5.89277e-06 
  GMRES iteration: 1   Residual: 1.70298e-08 (3.52546e-09 3.57537e-09 0) 1.50573e-08 
smoothSolver:  Solving for omega, Initial residual = 1.15753e-08, Final residual = 2.24839e-11, No Iterations 1
smoothSolver:  Solving for k, Initial residual = 2.39989e-06, Final residual = 8.97383e-08, No Iterations 1
ExecutionTime = 231.45 s  ExecutionStepTime = 0.07 s  ClockTime = 233 s

Time = 1997

pseudoTime: iteration 156094
Pseudo Courant No: 3
Damped pseudo Courant No: Min: 3 Mean: 3 Max: 3
Pseudo deltaT: Min: 7.19132e-09 Mean: 2.93914e-06 Max: 8.80982e-05
Solving for (rho rhoU rhoE)
  GMRES iteration: 0   Residual: 6.36269e-06 (1.25724e-06 1.39151e-06 1.57782e-18) 5.85586e-06 
  GMRES iteration: 1   Residual: 1.81775e-08 (3.99605e-09 4.16287e-09 0) 1.53847e-08 
smoothSolver:  Solving for omega, Initial residual = 1.15929e-08, Final residual = 2.25673e-11, No Iterations 1
smoothSolver:  Solving for k, Initial residual = 2.39655e-06, Final residual = 8.97124e-08, No Iterations 1
ExecutionTime = 231.51 s  ExecutionStepTime = 0.06 s  ClockTime = 233 s

Time = 1998

pseudoTime: iteration 156095
Pseudo Courant No: 3
Damped pseudo Courant No: Min: 3 Mean: 3 Max: 3
Pseudo deltaT: Min: 7.19132e-09 Mean: 2.93914e-06 Max: 8.80916e-05
Solving for (rho rhoU rhoE)
  GMRES iteration: 0   Residual: 6.2797e-06 (1.25711e-06 1.37293e-06 1.57782e-18) 5.77364e-06 
  GMRES iteration: 1   Residual: 1.86233e-08 (4.17872e-09 4.12803e-09 0) 1.55486e-08 
smoothSolver:  Solving for omega, Initial residual = 1.15633e-08, Final residual = 2.26252e-11, No Iterations 1
smoothSolver:  Solving for k, Initial residual = 2.3941e-06, Final residual = 8.96859e-08, No Iterations 1
ExecutionTime = 231.56 s  ExecutionStepTime = 0.05 s  ClockTime = 233 s

Time = 1998

pseudoTime: iteration 156096
Pseudo Courant No: 3
Damped pseudo Courant No: Min: 3 Mean: 3 Max: 3
Pseudo deltaT: Min: 7.19132e-09 Mean: 2.93914e-06 Max: 8.80973e-05
Solving for (rho rhoU rhoE)
  GMRES iteration: 0   Residual: 6.29112e-06 (1.25804e-06 1.35005e-06 1.57782e-18) 5.8121e-06 
  GMRES iteration: 1   Residual: 1.81609e-08 (4.11566e-09 4.27013e-09 0) 1.53192e-08 
smoothSolver:  Solving for omega, Initial residual = 1.14491e-08, Final residual = 2.26581e-11, No Iterations 1
smoothSolver:  Solving for k, Initial residual = 2.39108e-06, Final residual = 8.96585e-08, No Iterations 1
ExecutionTime = 231.63 s  ExecutionStepTime = 0.07 s  ClockTime = 233 s

Time = 1998

pseudoTime: iteration 156097
Pseudo Courant No: 3
Damped pseudo Courant No: Min: 3 Mean: 3 Max: 3
Pseudo deltaT: Min: 7.19133e-09 Mean: 2.93915e-06 Max: 8.80987e-05
Solving for (rho rhoU rhoE)
  GMRES iteration: 0   Residual: 6.24589e-06 (1.26201e-06 1.34147e-06 1.57782e-18) 5.75304e-06 
  GMRES iteration: 1   Residual: 1.74912e-08 (4.08026e-09 5.33202e-09 0) 1.52707e-08 
smoothSolver:  Solving for omega, Initial residual = 1.15704e-08, Final residual = 2.26951e-11, No Iterations 1
smoothSolver:  Solving for k, Initial residual = 2.38861e-06, Final residual = 8.96306e-08, No Iterations 1
ExecutionTime = 231.68 s  ExecutionStepTime = 0.05 s  ClockTime = 234 s

Time = 1999

pseudoTime: iteration 156098
Pseudo Courant No: 3
Damped pseudo Courant No: Min: 3 Mean: 3 Max: 3
Pseudo deltaT: Min: 7.19133e-09 Mean: 2.93915e-06 Max: 8.80955e-05
Solving for (rho rhoU rhoE)
  GMRES iteration: 0   Residual: 6.21723e-06 (1.26371e-06 1.32854e-06 1.57782e-18) 5.72051e-06 
  GMRES iteration: 1   Residual: 1.83774e-08 (4.24466e-09 4.64423e-09 0) 1.54511e-08 
smoothSolver:  Solving for omega, Initial residual = 1.16614e-08, Final residual = 2.27396e-11, No Iterations 1
smoothSolver:  Solving for k, Initial residual = 2.38549e-06, Final residual = 8.96011e-08, No Iterations 1
bounding k, min: -0.000159524 max: 8798.35 average: 1302.32
ExecutionTime = 231.75 s  ExecutionStepTime = 0.07 s  ClockTime = 234 s

Time = 2000

pseudoTime: iteration 156099
Pseudo Courant No: 3
Damped pseudo Courant No: Min: 3 Mean: 3 Max: 3
Pseudo deltaT: Min: 7.19133e-09 Mean: 2.93915e-06 Max: 8.80984e-05
Solving for (rho rhoU rhoE)
  GMRES iteration: 0   Residual: 6.25681e-06 (1.26704e-06 1.31657e-06 1.57782e-18) 5.76705e-06 
  GMRES iteration: 1   Residual: 1.7677e-08 (3.86663e-09 3.84277e-09 0) 1.50421e-08 
smoothSolver:  Solving for omega, Initial residual = 1.16255e-08, Final residual = 2.281e-11, No Iterations 1
smoothSolver:  Solving for k, Initial residual = 2.88338e-06, Final residual = 8.95736e-08, No Iterations 1
ExecutionTime = 231.8 s  ExecutionStepTime = 0.05 s  ClockTime = 234 s

Time = 2000

pseudoTime: iteration 156100
Pseudo Courant No: 3
Damped pseudo Courant No: Min: 3 Mean: 3 Max: 3
Pseudo deltaT: Min: 7.19133e-09 Mean: 2.93915e-06 Max: 8.80935e-05
Solving for (rho rhoU rhoE)
  GMRES iteration: 0   Residual: 6.2339e-06 (1.26243e-06 1.31826e-06 1.57782e-18) 5.7318e-06 
  GMRES iteration: 1   Residual: 1.83509e-08 (4.10679e-09 4.05105e-09 0) 1.53672e-08 
smoothSolver:  Solving for omega, Initial residual = 1.16697e-08, Final residual = 2.28131e-11, No Iterations 1
smoothSolver:  Solving for k, Initial residual = 2.74965e-06, Final residual = 8.95443e-08, No Iterations 1
ExecutionTime = 231.91 s  ExecutionStepTime = 0.11 s  ClockTime = 234 s

End

Finalising parallel run
