/*---------------------------------------------------------------------------*\
| =========                 |                                                 |
| \\      /  F ield         | OpenFOAM: The Open Source CFD Toolbox           |
|  \\    /   O peration     | Version:  v2012                                 |
|   \\  /    A nd           | Website:  www.openfoam.com                      |
|    \\/     M anipulation  |                                                 |
\*---------------------------------------------------------------------------*/
Build  : v2012 OPENFOAM=2012
Arch   : "LSB;label=32;scalar=64"
Exec   : hisa -postProcess -func wallHeatFlux -case results_ensemble/sample_2/case1
Date   : Dec 03 2024
Time   : 12:11:37
Host   : chen-virtual-machine
PID    : 73308
I/O    : uncollated
Case   : /home/chen/DAFI/ensemble-learning/test_cases/traincase/compression_ramp_2caseVaMa_PrtAndBeta_withoutTheta/results_ensemble/sample_2/case1
nProcs : 1
trapFpe: Floating point exception trapping enabled (FOAM_SIGFPE).
fileModificationChecking : Monitoring run-time modified files using timeStampMaster (fileModificationSkew 5, maxFileModificationPolls 20)
allowSystemOperations : Allowing user-supplied system call operations

// * * * * * * * * * * * * * * * * * * * * * * * * * * * * * * * * * * * * * //
Create time

Time = 0
Create mesh for time = 0, region region0
Creating static mesh

Steady-state analysis detected

pseudoTime: tolerance = 1e-07 (1e-07 1e-07 1e-07) 1e-07 , relTol = 0 (0 0 0) 0 

Local timestepping selected

Reading thermophysical properties

Selecting thermodynamics package 
{
    type            hePsiThermo;
    mixture         pureMixture;
    transport       sutherland;
    thermo          hConst;
    equationOfState perfectGas;
    specie          specie;
    energy          sensibleInternalEnergy;
}


Viscous analysis detected

Reading field U

Creating turbulence model

Selecting turbulence model type RAS
Selecting RAS turbulence model kOmegaSST
Selecting patchDistMethod meshWave
RAS
{
    RASModel        kOmegaSST;
    turbulence      on;
    betannmodel     0;
    printCoeffs     on;
    alphaK1         0.85;
    alphaK2         1;
    alphaOmega1     0.5;
    alphaOmega2     0.856;
    gamma1          0.555556;
    gamma2          0.44;
    beta1           0.075;
    beta2           0.0828;
    betaStar        0.09;
    a1              0.31;
    b1              1;
    c1              10;
    F3              false;
    cor             1;
    begin           0;
    end             1;
    Main            9.22;
    sca             1;
    betascalar      1;
    height1         0;
    height2         0.1;
    ybegin          0.1;
    decayControl    false;
    kInf            0;
    omegaInf        0;
}


Creating flux scheme

Selecting flux scheme AUSMPlusUp

No finite volume options present
Initial pseudo Courant No: Min: 3 Mean: 3 Max: 3

wallHeatFlux wallHeatFlux:
    processing all wall patches

    min/max/integ(base) = -13530.7, 30513.3, 366.882
wallHeatFlux wallHeatFlux write:
    writing field wallHeatFlux

Time = 12800
Create mesh for time = 12800, region region0
Creating static mesh

Steady-state analysis detected

pseudoTime: tolerance = 1e-07 (1e-07 1e-07 1e-07) 1e-07 , relTol = 0 (0 0 0) 0 

Local timestepping selected

Reading thermophysical properties

Selecting thermodynamics package 
{
    type            hePsiThermo;
    mixture         pureMixture;
    transport       sutherland;
    thermo          hConst;
    equationOfState perfectGas;
    specie          specie;
    energy          sensibleInternalEnergy;
}


Viscous analysis detected

Reading field U

Creating turbulence model

Selecting turbulence model type RAS
Selecting RAS turbulence model kOmegaSST
Selecting patchDistMethod meshWave
RAS
{
    RASModel        kOmegaSST;
    turbulence      on;
    betannmodel     0;
    printCoeffs     on;
    alphaK1         0.85;
    alphaK2         1;
    alphaOmega1     0.5;
    alphaOmega2     0.856;
    gamma1          0.555556;
    gamma2          0.44;
    beta1           0.075;
    beta2           0.0828;
    betaStar        0.09;
    a1              0.31;
    b1              1;
    c1              10;
    F3              false;
    cor             1;
    begin           0;
    end             1;
    Main            9.22;
    sca             1;
    betascalar      1;
    height1         0;
    height2         0.1;
    ybegin          0.1;
    decayControl    false;
    kInf            0;
    omegaInf        0;
}


Creating flux scheme

Selecting flux scheme AUSMPlusUp

No finite volume options present
Initial pseudo Courant No: Min: 3 Mean: 3 Max: 3

wallHeatFlux wallHeatFlux:
    processing all wall patches

    min/max/integ(base) = -11396.8, 26015.6, 290.918
wallHeatFlux wallHeatFlux write:
    writing field wallHeatFlux

Time = 12900
Create mesh for time = 12900, region region0
Creating static mesh

Steady-state analysis detected

pseudoTime: tolerance = 1e-07 (1e-07 1e-07 1e-07) 1e-07 , relTol = 0 (0 0 0) 0 

Local timestepping selected

Reading thermophysical properties

Selecting thermodynamics package 
{
    type            hePsiThermo;
    mixture         pureMixture;
    transport       sutherland;
    thermo          hConst;
    equationOfState perfectGas;
    specie          specie;
    energy          sensibleInternalEnergy;
}


Viscous analysis detected

Reading field U

Creating turbulence model

Selecting turbulence model type RAS
Selecting RAS turbulence model kOmegaSST
Selecting patchDistMethod meshWave
RAS
{
    RASModel        kOmegaSST;
    turbulence      on;
    betannmodel     0;
    printCoeffs     on;
    alphaK1         0.85;
    alphaK2         1;
    alphaOmega1     0.5;
    alphaOmega2     0.856;
    gamma1          0.555556;
    gamma2          0.44;
    beta1           0.075;
    beta2           0.0828;
    betaStar        0.09;
    a1              0.31;
    b1              1;
    c1              10;
    F3              false;
    cor             1;
    begin           0;
    end             1;
    Main            9.22;
    sca             1;
    betascalar      1;
    height1         0;
    height2         0.1;
    ybegin          0.1;
    decayControl    false;
    kInf            0;
    omegaInf        0;
}


Creating flux scheme

Selecting flux scheme AUSMPlusUp

No finite volume options present
Initial pseudo Courant No: Min: 3 Mean: 3 Max: 3

wallHeatFlux wallHeatFlux:
    processing all wall patches

    min/max/integ(base) = -11396.8, 26061.9, 290.932
wallHeatFlux wallHeatFlux write:
    writing field wallHeatFlux

Time = 13000
Create mesh for time = 13000, region region0
Creating static mesh

Steady-state analysis detected

pseudoTime: tolerance = 1e-07 (1e-07 1e-07 1e-07) 1e-07 , relTol = 0 (0 0 0) 0 

Local timestepping selected

Reading thermophysical properties

Selecting thermodynamics package 
{
    type            hePsiThermo;
    mixture         pureMixture;
    transport       sutherland;
    thermo          hConst;
    equationOfState perfectGas;
    specie          specie;
    energy          sensibleInternalEnergy;
}


Viscous analysis detected

Reading field U

Creating turbulence model

Selecting turbulence model type RAS
Selecting RAS turbulence model kOmegaSST
Selecting patchDistMethod meshWave
RAS
{
    RASModel        kOmegaSST;
    turbulence      on;
    betannmodel     0;
    printCoeffs     on;
    alphaK1         0.85;
    alphaK2         1;
    alphaOmega1     0.5;
    alphaOmega2     0.856;
    gamma1          0.555556;
    gamma2          0.44;
    beta1           0.075;
    beta2           0.0828;
    betaStar        0.09;
    a1              0.31;
    b1              1;
    c1              10;
    F3              false;
    cor             1;
    begin           0;
    end             1;
    Main            9.22;
    sca             1;
    betascalar      1;
    height1         0;
    height2         0.1;
    ybegin          0.1;
    decayControl    false;
    kInf            0;
    omegaInf        0;
}


Creating flux scheme

Selecting flux scheme AUSMPlusUp

No finite volume options present
Initial pseudo Courant No: Min: 3 Mean: 3 Max: 3

wallHeatFlux wallHeatFlux:
    processing all wall patches

    min/max/integ(base) = -11445.3, 26015.6, 290.612
wallHeatFlux wallHeatFlux write:
    writing field wallHeatFlux

End

